/*---------------------------------------------------------------------------*\
  =========                 |
  \\      /  F ield         | OpenFOAM: The Open Source CFD Toolbox
   \\    /   O peration     | Website:  https://openfoam.org
    \\  /    A nd           | Version:  11
     \\/     M anipulation  |
\*---------------------------------------------------------------------------*/
Build  : 11-c219200fdb8b
Exec   : laplacianFoam
Date   : Apr 25 2024
Time   : 15:37:55
Host   : "MSI"
PID    : 40816
I/O    : uncollated
Case   : /home/yuriachermann/OpenFOAM/yuriachermann-11/run/flange
nProcs : 1
sigFpe : Enabling floating point exception trapping (FOAM_SIGFPE).
fileModificationChecking : Monitoring run-time modified files using timeStampMaster (fileModificationSkew 10)
allowSystemOperations : Allowing user-supplied system call operations

// * * * * * * * * * * * * * * * * * * * * * * * * * * * * * * * * * * * * * //
Create time

Create mesh for time = 0


SIMPLE: No convergence criteria found

Reading field T

Reading physicalProperties

Reading diffusivity DT

No fvModels present
No fvConstraints present

Calculating temperature distribution

Time = 0.005s

DICPCG:  Solving for T, Initial residual = 1, Final residual = 1.6509e-07, No Iterations 5
DICPCG:  Solving for T, Initial residual = 0.00446909, Final residual = 2.5856e-07, No Iterations 3
DICPCG:  Solving for T, Initial residual = 0.000148075, Final residual = 1.66109e-07, No Iterations 2
ExecutionTime = 0.020964 s  ClockTime = 0 s

Time = 0.01s

DICPCG:  Solving for T, Initial residual = 0.203756, Final residual = 3.79205e-07, No Iterations 4
DICPCG:  Solving for T, Initial residual = 0.00184337, Final residual = 1.15755e-07, No Iterations 3
DICPCG:  Solving for T, Initial residual = 5.70582e-05, Final residual = 6.61886e-08, No Iterations 2
ExecutionTime = 0.022777 s  ClockTime = 0 s

Time = 0.015s

DICPCG:  Solving for T, Initial residual = 0.109922, Final residual = 2.11612e-07, No Iterations 4
DICPCG:  Solving for T, Initial residual = 0.00104614, Final residual = 6.94201e-08, No Iterations 3
DICPCG:  Solving for T, Initial residual = 3.13337e-05, Final residual = 7.19292e-07, No Iterations 1
ExecutionTime = 0.024512 s  ClockTime = 0 s

Time = 0.02s

DICPCG:  Solving for T, Initial residual = 0.072809, Final residual = 1.56724e-07, No Iterations 4
DICPCG:  Solving for T, Initial residual = 0.000680411, Final residual = 6.78664e-07, No Iterations 2
DICPCG:  Solving for T, Initial residual = 2.06036e-05, Final residual = 4.78527e-07, No Iterations 1
ExecutionTime = 0.02639 s  ClockTime = 0 s

Time = 0.025s

DICPCG:  Solving for T, Initial residual = 0.0532993, Final residual = 1.33249e-07, No Iterations 4
DICPCG:  Solving for T, Initial residual = 0.00048352, Final residual = 4.9368e-07, No Iterations 2
DICPCG:  Solving for T, Initial residual = 1.52119e-05, Final residual = 3.54551e-07, No Iterations 1
ExecutionTime = 0.028448 s  ClockTime = 0 s

Time = 0.03s

DICPCG:  Solving for T, Initial residual = 0.0415324, Final residual = 1.22663e-07, No Iterations 4
DICPCG:  Solving for T, Initial residual = 0.000368131, Final residual = 3.82152e-07, No Iterations 2
DICPCG:  Solving for T, Initial residual = 1.20424e-05, Final residual = 2.81639e-07, No Iterations 1
ExecutionTime = 0.030089 s  ClockTime = 0 s

Time = 0.035s

DICPCG:  Solving for T, Initial residual = 0.0337493, Final residual = 1.13781e-07, No Iterations 4
DICPCG:  Solving for T, Initial residual = 0.000301926, Final residual = 3.17115e-07, No Iterations 2
DICPCG:  Solving for T, Initial residual = 9.98161e-06, Final residual = 2.33706e-07, No Iterations 1
ExecutionTime = 0.031716 s  ClockTime = 0 s

Time = 0.04s

DICPCG:  Solving for T, Initial residual = 0.0282433, Final residual = 1.07205e-07, No Iterations 4
DICPCG:  Solving for T, Initial residual = 0.000257953, Final residual = 2.82761e-07, No Iterations 2
DICPCG:  Solving for T, Initial residual = 8.48989e-06, Final residual = 2.00361e-07, No Iterations 1
ExecutionTime = 0.033264 s  ClockTime = 0 s

Time = 0.045s

DICPCG:  Solving for T, Initial residual = 0.0241622, Final residual = 1.02378e-07, No Iterations 4
DICPCG:  Solving for T, Initial residual = 0.000224395, Final residual = 2.73835e-07, No Iterations 2
DICPCG:  Solving for T, Initial residual = 7.35595e-06, Final residual = 1.75512e-07, No Iterations 1
ExecutionTime = 0.034822 s  ClockTime = 0 s

Time = 0.05s

DICPCG:  Solving for T, Initial residual = 0.0210218, Final residual = 9.71637e-08, No Iterations 4
DICPCG:  Solving for T, Initial residual = 0.00019789, Final residual = 2.69617e-07, No Iterations 2
DICPCG:  Solving for T, Initial residual = 6.45747e-06, Final residual = 1.55758e-07, No Iterations 1
ExecutionTime = 0.036383 s  ClockTime = 0 s

Time = 0.055s

DICPCG:  Solving for T, Initial residual = 0.0185349, Final residual = 9.20698e-08, No Iterations 4
DICPCG:  Solving for T, Initial residual = 0.000176352, Final residual = 2.63159e-07, No Iterations 2
DICPCG:  Solving for T, Initial residual = 5.72632e-06, Final residual = 1.39528e-07, No Iterations 1
ExecutionTime = 0.03797 s  ClockTime = 0 s

Time = 0.06s

DICPCG:  Solving for T, Initial residual = 0.0165191, Final residual = 8.70801e-08, No Iterations 4
DICPCG:  Solving for T, Initial residual = 0.000158094, Final residual = 2.55212e-07, No Iterations 2
DICPCG:  Solving for T, Initial residual = 5.12432e-06, Final residual = 1.25927e-07, No Iterations 1
ExecutionTime = 0.039529 s  ClockTime = 0 s

Time = 0.065s

DICPCG:  Solving for T, Initial residual = 0.0148535, Final residual = 8.21619e-08, No Iterations 4
DICPCG:  Solving for T, Initial residual = 0.000142327, Final residual = 2.4554e-07, No Iterations 2
DICPCG:  Solving for T, Initial residual = 4.60976e-06, Final residual = 1.14066e-07, No Iterations 1
ExecutionTime = 0.041103 s  ClockTime = 0 s

Time = 0.07s

DICPCG:  Solving for T, Initial residual = 0.0134552, Final residual = 7.74684e-08, No Iterations 4
DICPCG:  Solving for T, Initial residual = 0.000128605, Final residual = 2.34717e-07, No Iterations 2
DICPCG:  Solving for T, Initial residual = 4.16806e-06, Final residual = 1.03661e-07, No Iterations 1
ExecutionTime = 0.042665 s  ClockTime = 0 s

Time = 0.075s

DICPCG:  Solving for T, Initial residual = 0.0122655, Final residual = 9.66809e-07, No Iterations 3
DICPCG:  Solving for T, Initial residual = 0.000116671, Final residual = 2.14041e-07, No Iterations 2
DICPCG:  Solving for T, Initial residual = 3.77039e-06, Final residual = 9.41145e-08, No Iterations 1
ExecutionTime = 0.044178 s  ClockTime = 0 s

Time = 0.08s

DICPCG:  Solving for T, Initial residual = 0.0112412, Final residual = 9.2947e-07, No Iterations 3
DICPCG:  Solving for T, Initial residual = 0.000106303, Final residual = 2.02069e-07, No Iterations 2
DICPCG:  Solving for T, Initial residual = 3.43991e-06, Final residual = 8.6026e-08, No Iterations 1
ExecutionTime = 0.045705 s  ClockTime = 0 s

Time = 0.085s

DICPCG:  Solving for T, Initial residual = 0.0103499, Final residual = 8.94516e-07, No Iterations 3
DICPCG:  Solving for T, Initial residual = 9.72221e-05, Final residual = 1.90406e-07, No Iterations 2
DICPCG:  Solving for T, Initial residual = 3.14849e-06, Final residual = 7.88962e-08, No Iterations 1
ExecutionTime = 0.047192 s  ClockTime = 0 s

Time = 0.09s

DICPCG:  Solving for T, Initial residual = 0.00956792, Final residual = 8.61549e-07, No Iterations 3
DICPCG:  Solving for T, Initial residual = 8.92233e-05, Final residual = 1.79044e-07, No Iterations 2
DICPCG:  Solving for T, Initial residual = 2.89307e-06, Final residual = 7.26011e-08, No Iterations 1
ExecutionTime = 0.048693 s  ClockTime = 0 s

Time = 0.095s

DICPCG:  Solving for T, Initial residual = 0.00887699, Final residual = 8.30534e-07, No Iterations 3
DICPCG:  Solving for T, Initial residual = 8.21602e-05, Final residual = 1.68166e-07, No Iterations 2
DICPCG:  Solving for T, Initial residual = 2.66562e-06, Final residual = 6.69965e-08, No Iterations 1
ExecutionTime = 0.050209 s  ClockTime = 0 s

Time = 0.1s

DICPCG:  Solving for T, Initial residual = 0.00826319, Final residual = 8.01099e-07, No Iterations 3
DICPCG:  Solving for T, Initial residual = 7.58398e-05, Final residual = 1.57844e-07, No Iterations 2
DICPCG:  Solving for T, Initial residual = 2.463e-06, Final residual = 6.19942e-08, No Iterations 1
ExecutionTime = 0.059746 s  ClockTime = 0 s

Time = 0.105s

DICPCG:  Solving for T, Initial residual = 0.00771511, Final residual = 7.72965e-07, No Iterations 3
DICPCG:  Solving for T, Initial residual = 7.01677e-05, Final residual = 1.47988e-07, No Iterations 2
DICPCG:  Solving for T, Initial residual = 2.2818e-06, Final residual = 5.76157e-08, No Iterations 1
ExecutionTime = 0.061434 s  ClockTime = 0 s

Time = 0.11s

DICPCG:  Solving for T, Initial residual = 0.00722333, Final residual = 7.46343e-07, No Iterations 3
DICPCG:  Solving for T, Initial residual = 6.50892e-05, Final residual = 1.38645e-07, No Iterations 2
DICPCG:  Solving for T, Initial residual = 2.12161e-06, Final residual = 5.37012e-08, No Iterations 1
ExecutionTime = 0.062949 s  ClockTime = 0 s

Time = 0.115s

DICPCG:  Solving for T, Initial residual = 0.00678029, Final residual = 7.2079e-07, No Iterations 3
DICPCG:  Solving for T, Initial residual = 6.05344e-05, Final residual = 1.29848e-07, No Iterations 2
DICPCG:  Solving for T, Initial residual = 1.97856e-06, Final residual = 5.02476e-08, No Iterations 1
ExecutionTime = 0.064474 s  ClockTime = 0 s

Time = 0.12s

DICPCG:  Solving for T, Initial residual = 0.00637977, Final residual = 6.96219e-07, No Iterations 3
DICPCG:  Solving for T, Initial residual = 5.64476e-05, Final residual = 1.21587e-07, No Iterations 2
DICPCG:  Solving for T, Initial residual = 1.85006e-06, Final residual = 4.71723e-08, No Iterations 1
ExecutionTime = 0.065976 s  ClockTime = 0 s

Time = 0.125s

DICPCG:  Solving for T, Initial residual = 0.00601657, Final residual = 6.72866e-07, No Iterations 3
DICPCG:  Solving for T, Initial residual = 5.27686e-05, Final residual = 1.13846e-07, No Iterations 2
DICPCG:  Solving for T, Initial residual = 1.73427e-06, Final residual = 4.44763e-08, No Iterations 1
ExecutionTime = 0.067472 s  ClockTime = 0 s

Time = 0.13s

DICPCG:  Solving for T, Initial residual = 0.00568603, Final residual = 6.51081e-07, No Iterations 3
DICPCG:  Solving for T, Initial residual = 4.94298e-05, Final residual = 9.72027e-07, No Iterations 1
DICPCG:  Solving for T, Initial residual = 1.89413e-06, Final residual = 8.46471e-08, No Iterations 1
ExecutionTime = 0.069031 s  ClockTime = 0 s

Time = 0.135s

DICPCG:  Solving for T, Initial residual = 0.00538424, Final residual = 6.29311e-07, No Iterations 3
DICPCG:  Solving for T, Initial residual = 4.64067e-05, Final residual = 9.13385e-07, No Iterations 1
DICPCG:  Solving for T, Initial residual = 1.78082e-06, Final residual = 7.75387e-08, No Iterations 1
ExecutionTime = 0.070454 s  ClockTime = 0 s

Time = 0.14s

DICPCG:  Solving for T, Initial residual = 0.00510804, Final residual = 6.09465e-07, No Iterations 3
DICPCG:  Solving for T, Initial residual = 4.36657e-05, Final residual = 8.60366e-07, No Iterations 1
DICPCG:  Solving for T, Initial residual = 1.67799e-06, Final residual = 7.13946e-08, No Iterations 1
ExecutionTime = 0.071844 s  ClockTime = 0 s

Time = 0.145s

DICPCG:  Solving for T, Initial residual = 0.0048549, Final residual = 5.90656e-07, No Iterations 3
DICPCG:  Solving for T, Initial residual = 4.11622e-05, Final residual = 8.11883e-07, No Iterations 1
DICPCG:  Solving for T, Initial residual = 1.58345e-06, Final residual = 6.58367e-08, No Iterations 1
ExecutionTime = 0.073272 s  ClockTime = 0 s

Time = 0.15s

DICPCG:  Solving for T, Initial residual = 0.00462239, Final residual = 5.72701e-07, No Iterations 3
DICPCG:  Solving for T, Initial residual = 3.88611e-05, Final residual = 7.67953e-07, No Iterations 1
DICPCG:  Solving for T, Initial residual = 1.49615e-06, Final residual = 6.07537e-08, No Iterations 1
ExecutionTime = 0.074646 s  ClockTime = 0 s

Time = 0.155s

DICPCG:  Solving for T, Initial residual = 0.00440832, Final residual = 5.55648e-07, No Iterations 3
DICPCG:  Solving for T, Initial residual = 3.67546e-05, Final residual = 7.27598e-07, No Iterations 1
DICPCG:  Solving for T, Initial residual = 1.41561e-06, Final residual = 5.61098e-08, No Iterations 1
ExecutionTime = 0.076015 s  ClockTime = 0 s

Time = 0.16s

DICPCG:  Solving for T, Initial residual = 0.0042108, Final residual = 5.39347e-07, No Iterations 3
DICPCG:  Solving for T, Initial residual = 3.48217e-05, Final residual = 6.90375e-07, No Iterations 1
DICPCG:  Solving for T, Initial residual = 1.34132e-06, Final residual = 5.19505e-08, No Iterations 1
ExecutionTime = 0.077419 s  ClockTime = 0 s

Time = 0.165s

DICPCG:  Solving for T, Initial residual = 0.00402822, Final residual = 5.23717e-07, No Iterations 3
DICPCG:  Solving for T, Initial residual = 3.30621e-05, Final residual = 6.55889e-07, No Iterations 1
DICPCG:  Solving for T, Initial residual = 1.27295e-06, Final residual = 4.82092e-08, No Iterations 1
ExecutionTime = 0.078837 s  ClockTime = 0 s

Time = 0.17s

DICPCG:  Solving for T, Initial residual = 0.00385914, Final residual = 5.08728e-07, No Iterations 3
DICPCG:  Solving for T, Initial residual = 3.14365e-05, Final residual = 6.24022e-07, No Iterations 1
DICPCG:  Solving for T, Initial residual = 1.21001e-06, Final residual = 4.48651e-08, No Iterations 1
ExecutionTime = 0.080243 s  ClockTime = 0 s

Time = 0.175s

DICPCG:  Solving for T, Initial residual = 0.00370228, Final residual = 4.9437e-07, No Iterations 3
DICPCG:  Solving for T, Initial residual = 2.99378e-05, Final residual = 5.94529e-07, No Iterations 1
DICPCG:  Solving for T, Initial residual = 1.15163e-06, Final residual = 4.18727e-08, No Iterations 1
ExecutionTime = 0.081664 s  ClockTime = 0 s

Time = 0.18s

DICPCG:  Solving for T, Initial residual = 0.00355661, Final residual = 4.80633e-07, No Iterations 3
DICPCG:  Solving for T, Initial residual = 2.8542e-05, Final residual = 5.67253e-07, No Iterations 1
DICPCG:  Solving for T, Initial residual = 1.09766e-06, Final residual = 3.9392e-08, No Iterations 1
ExecutionTime = 0.083039 s  ClockTime = 0 s

Time = 0.185s

DICPCG:  Solving for T, Initial residual = 0.00342117, Final residual = 4.67526e-07, No Iterations 3
DICPCG:  Solving for T, Initial residual = 2.72409e-05, Final residual = 5.42056e-07, No Iterations 1
DICPCG:  Solving for T, Initial residual = 1.04748e-06, Final residual = 3.73077e-08, No Iterations 1
ExecutionTime = 0.084428 s  ClockTime = 0 s

Time = 0.19s

DICPCG:  Solving for T, Initial residual = 0.00329512, Final residual = 4.5503e-07, No Iterations 3
DICPCG:  Solving for T, Initial residual = 2.60275e-05, Final residual = 5.18822e-07, No Iterations 1
DICPCG:  Solving for T, Initial residual = 1.00101e-06, Final residual = 3.54829e-08, No Iterations 1
ExecutionTime = 0.085794 s  ClockTime = 0 s

Time = 0.195s

DICPCG:  Solving for T, Initial residual = 0.00317766, Final residual = 4.43093e-07, No Iterations 3
DICPCG:  Solving for T, Initial residual = 2.49014e-05, Final residual = 4.97349e-07, No Iterations 1
DICPCG:  Solving for T, Initial residual = 9.58172e-07, Final residual = 9.58172e-07, No Iterations 0
ExecutionTime = 0.087068 s  ClockTime = 0 s

Time = 0.2s

DICPCG:  Solving for T, Initial residual = 0.00306794, Final residual = 4.33247e-07, No Iterations 3
DICPCG:  Solving for T, Initial residual = 2.38592e-05, Final residual = 4.78382e-07, No Iterations 1
DICPCG:  Solving for T, Initial residual = 9.19187e-07, Final residual = 9.19187e-07, No Iterations 0
ExecutionTime = 0.09635 s  ClockTime = 0 s

Time = 0.205s

DICPCG:  Solving for T, Initial residual = 0.00296529, Final residual = 4.22485e-07, No Iterations 3
DICPCG:  Solving for T, Initial residual = 2.288e-05, Final residual = 4.59781e-07, No Iterations 1
DICPCG:  Solving for T, Initial residual = 8.82286e-07, Final residual = 8.82286e-07, No Iterations 0
ExecutionTime = 0.097845 s  ClockTime = 0 s

Time = 0.21s

DICPCG:  Solving for T, Initial residual = 0.00286906, Final residual = 4.119e-07, No Iterations 3
DICPCG:  Solving for T, Initial residual = 2.19607e-05, Final residual = 4.42341e-07, No Iterations 1
DICPCG:  Solving for T, Initial residual = 8.47849e-07, Final residual = 8.47849e-07, No Iterations 0
ExecutionTime = 0.099193 s  ClockTime = 0 s

Time = 0.215s

DICPCG:  Solving for T, Initial residual = 0.00277886, Final residual = 4.01752e-07, No Iterations 3
DICPCG:  Solving for T, Initial residual = 2.10983e-05, Final residual = 4.25975e-07, No Iterations 1
DICPCG:  Solving for T, Initial residual = 8.1559e-07, Final residual = 8.1559e-07, No Iterations 0
ExecutionTime = 0.100619 s  ClockTime = 0 s

Time = 0.22s

DICPCG:  Solving for T, Initial residual = 0.0026942, Final residual = 3.92051e-07, No Iterations 3
DICPCG:  Solving for T, Initial residual = 2.02911e-05, Final residual = 4.1066e-07, No Iterations 1
DICPCG:  Solving for T, Initial residual = 7.85661e-07, Final residual = 7.85661e-07, No Iterations 0
ExecutionTime = 0.101968 s  ClockTime = 0 s

Time = 0.225s

DICPCG:  Solving for T, Initial residual = 0.00261471, Final residual = 3.82792e-07, No Iterations 3
DICPCG:  Solving for T, Initial residual = 1.95363e-05, Final residual = 3.96367e-07, No Iterations 1
DICPCG:  Solving for T, Initial residual = 7.57935e-07, Final residual = 7.57935e-07, No Iterations 0
ExecutionTime = 0.103347 s  ClockTime = 0 s

Time = 0.23s

DICPCG:  Solving for T, Initial residual = 0.00253998, Final residual = 3.73916e-07, No Iterations 3
DICPCG:  Solving for T, Initial residual = 1.88291e-05, Final residual = 3.82872e-07, No Iterations 1
DICPCG:  Solving for T, Initial residual = 7.32078e-07, Final residual = 7.32078e-07, No Iterations 0
ExecutionTime = 0.104738 s  ClockTime = 0 s

Time = 0.235s

DICPCG:  Solving for T, Initial residual = 0.00246967, Final residual = 3.65418e-07, No Iterations 3
DICPCG:  Solving for T, Initial residual = 1.81639e-05, Final residual = 3.70189e-07, No Iterations 1
DICPCG:  Solving for T, Initial residual = 7.08069e-07, Final residual = 7.08069e-07, No Iterations 0
ExecutionTime = 0.106076 s  ClockTime = 0 s

Time = 0.24s

DICPCG:  Solving for T, Initial residual = 0.00240344, Final residual = 3.57277e-07, No Iterations 3
DICPCG:  Solving for T, Initial residual = 1.7539e-05, Final residual = 3.58327e-07, No Iterations 1
DICPCG:  Solving for T, Initial residual = 6.85493e-07, Final residual = 6.85493e-07, No Iterations 0
ExecutionTime = 0.107412 s  ClockTime = 0 s

Time = 0.245s

DICPCG:  Solving for T, Initial residual = 0.00234099, Final residual = 3.49482e-07, No Iterations 3
DICPCG:  Solving for T, Initial residual = 1.69501e-05, Final residual = 3.47105e-07, No Iterations 1
DICPCG:  Solving for T, Initial residual = 6.64317e-07, Final residual = 6.64317e-07, No Iterations 0
ExecutionTime = 0.108834 s  ClockTime = 0 s

Time = 0.25s

DICPCG:  Solving for T, Initial residual = 0.00228201, Final residual = 3.42002e-07, No Iterations 3
DICPCG:  Solving for T, Initial residual = 1.63935e-05, Final residual = 3.3666e-07, No Iterations 1
DICPCG:  Solving for T, Initial residual = 6.44465e-07, Final residual = 6.44465e-07, No Iterations 0
ExecutionTime = 0.110166 s  ClockTime = 0 s

Time = 0.255s

DICPCG:  Solving for T, Initial residual = 0.00222628, Final residual = 3.34824e-07, No Iterations 3
DICPCG:  Solving for T, Initial residual = 1.58678e-05, Final residual = 3.26796e-07, No Iterations 1
DICPCG:  Solving for T, Initial residual = 6.25893e-07, Final residual = 6.25893e-07, No Iterations 0
ExecutionTime = 0.111451 s  ClockTime = 0 s

Time = 0.26s

DICPCG:  Solving for T, Initial residual = 0.00217352, Final residual = 3.27945e-07, No Iterations 3
DICPCG:  Solving for T, Initial residual = 1.53714e-05, Final residual = 3.17422e-07, No Iterations 1
DICPCG:  Solving for T, Initial residual = 6.08424e-07, Final residual = 6.08424e-07, No Iterations 0
ExecutionTime = 0.112797 s  ClockTime = 0 s

Time = 0.265s

DICPCG:  Solving for T, Initial residual = 0.00212352, Final residual = 3.21347e-07, No Iterations 3
DICPCG:  Solving for T, Initial residual = 1.49017e-05, Final residual = 3.08541e-07, No Iterations 1
DICPCG:  Solving for T, Initial residual = 5.91842e-07, Final residual = 5.91842e-07, No Iterations 0
ExecutionTime = 0.114131 s  ClockTime = 0 s

Time = 0.27s

DICPCG:  Solving for T, Initial residual = 0.0020761, Final residual = 3.15031e-07, No Iterations 3
DICPCG:  Solving for T, Initial residual = 1.44567e-05, Final residual = 3.00163e-07, No Iterations 1
DICPCG:  Solving for T, Initial residual = 5.76039e-07, Final residual = 5.76039e-07, No Iterations 0
ExecutionTime = 0.115473 s  ClockTime = 0 s

Time = 0.275s

DICPCG:  Solving for T, Initial residual = 0.00203107, Final residual = 3.08962e-07, No Iterations 3
DICPCG:  Solving for T, Initial residual = 1.40378e-05, Final residual = 2.92237e-07, No Iterations 1
DICPCG:  Solving for T, Initial residual = 5.60983e-07, Final residual = 5.60983e-07, No Iterations 0
ExecutionTime = 0.11675 s  ClockTime = 0 s

Time = 0.28s

DICPCG:  Solving for T, Initial residual = 0.00198827, Final residual = 3.03125e-07, No Iterations 3
DICPCG:  Solving for T, Initial residual = 1.36404e-05, Final residual = 2.84788e-07, No Iterations 1
DICPCG:  Solving for T, Initial residual = 5.46692e-07, Final residual = 5.46692e-07, No Iterations 0
ExecutionTime = 0.118164 s  ClockTime = 0 s

Time = 0.285s

DICPCG:  Solving for T, Initial residual = 0.00194754, Final residual = 2.97511e-07, No Iterations 3
DICPCG:  Solving for T, Initial residual = 1.32628e-05, Final residual = 2.7773e-07, No Iterations 1
DICPCG:  Solving for T, Initial residual = 5.33104e-07, Final residual = 5.33104e-07, No Iterations 0
ExecutionTime = 0.119499 s  ClockTime = 0 s

Time = 0.29s

DICPCG:  Solving for T, Initial residual = 0.00190875, Final residual = 2.92113e-07, No Iterations 3
DICPCG:  Solving for T, Initial residual = 1.29031e-05, Final residual = 2.71078e-07, No Iterations 1
DICPCG:  Solving for T, Initial residual = 5.20127e-07, Final residual = 5.20127e-07, No Iterations 0
ExecutionTime = 0.120859 s  ClockTime = 0 s

Time = 0.295s

DICPCG:  Solving for T, Initial residual = 0.00187179, Final residual = 2.86915e-07, No Iterations 3
DICPCG:  Solving for T, Initial residual = 1.25613e-05, Final residual = 2.64794e-07, No Iterations 1
DICPCG:  Solving for T, Initial residual = 5.07917e-07, Final residual = 5.07917e-07, No Iterations 0
ExecutionTime = 0.122181 s  ClockTime = 0 s

Time = 0.3s

DICPCG:  Solving for T, Initial residual = 0.00183654, Final residual = 2.81914e-07, No Iterations 3
DICPCG:  Solving for T, Initial residual = 1.22367e-05, Final residual = 2.58823e-07, No Iterations 1
DICPCG:  Solving for T, Initial residual = 4.96265e-07, Final residual = 4.96265e-07, No Iterations 0
ExecutionTime = 0.131835 s  ClockTime = 0 s

Time = 0.305s

DICPCG:  Solving for T, Initial residual = 0.0018029, Final residual = 2.771e-07, No Iterations 3
DICPCG:  Solving for T, Initial residual = 1.193e-05, Final residual = 2.531e-07, No Iterations 1
DICPCG:  Solving for T, Initial residual = 4.85078e-07, Final residual = 4.85078e-07, No Iterations 0
ExecutionTime = 0.133335 s  ClockTime = 0 s

Time = 0.31s

DICPCG:  Solving for T, Initial residual = 0.00177074, Final residual = 2.72458e-07, No Iterations 3
DICPCG:  Solving for T, Initial residual = 1.16393e-05, Final residual = 2.47588e-07, No Iterations 1
DICPCG:  Solving for T, Initial residual = 4.74332e-07, Final residual = 4.74332e-07, No Iterations 0
ExecutionTime = 0.134679 s  ClockTime = 0 s

Time = 0.315s

DICPCG:  Solving for T, Initial residual = 0.00173998, Final residual = 2.67984e-07, No Iterations 3
DICPCG:  Solving for T, Initial residual = 1.13603e-05, Final residual = 2.42356e-07, No Iterations 1
DICPCG:  Solving for T, Initial residual = 4.64097e-07, Final residual = 4.64097e-07, No Iterations 0
ExecutionTime = 0.136039 s  ClockTime = 0 s

Time = 0.32s

DICPCG:  Solving for T, Initial residual = 0.00171053, Final residual = 2.63669e-07, No Iterations 3
DICPCG:  Solving for T, Initial residual = 1.10928e-05, Final residual = 2.37427e-07, No Iterations 1
DICPCG:  Solving for T, Initial residual = 4.54348e-07, Final residual = 4.54348e-07, No Iterations 0
ExecutionTime = 0.137398 s  ClockTime = 0 s

Time = 0.325s

DICPCG:  Solving for T, Initial residual = 0.00168232, Final residual = 2.5951e-07, No Iterations 3
DICPCG:  Solving for T, Initial residual = 1.08364e-05, Final residual = 2.3271e-07, No Iterations 1
DICPCG:  Solving for T, Initial residual = 4.45098e-07, Final residual = 4.45098e-07, No Iterations 0
ExecutionTime = 0.13899 s  ClockTime = 0 s

Time = 0.33s

DICPCG:  Solving for T, Initial residual = 0.00165527, Final residual = 2.555e-07, No Iterations 3
DICPCG:  Solving for T, Initial residual = 1.05906e-05, Final residual = 2.28176e-07, No Iterations 1
DICPCG:  Solving for T, Initial residual = 4.36203e-07, Final residual = 4.36203e-07, No Iterations 0
ExecutionTime = 0.140809 s  ClockTime = 0 s

Time = 0.335s

DICPCG:  Solving for T, Initial residual = 0.00162932, Final residual = 2.51637e-07, No Iterations 3
DICPCG:  Solving for T, Initial residual = 1.03565e-05, Final residual = 2.23826e-07, No Iterations 1
DICPCG:  Solving for T, Initial residual = 4.27636e-07, Final residual = 4.27636e-07, No Iterations 0
ExecutionTime = 0.142325 s  ClockTime = 0 s

Time = 0.34s

DICPCG:  Solving for T, Initial residual = 0.0016044, Final residual = 2.47913e-07, No Iterations 3
DICPCG:  Solving for T, Initial residual = 1.01319e-05, Final residual = 2.19631e-07, No Iterations 1
DICPCG:  Solving for T, Initial residual = 4.19513e-07, Final residual = 4.19513e-07, No Iterations 0
ExecutionTime = 0.143604 s  ClockTime = 0 s

Time = 0.345s

DICPCG:  Solving for T, Initial residual = 0.00158045, Final residual = 2.4432e-07, No Iterations 3
DICPCG:  Solving for T, Initial residual = 9.91621e-06, Final residual = 2.15591e-07, No Iterations 1
DICPCG:  Solving for T, Initial residual = 4.11713e-07, Final residual = 4.11713e-07, No Iterations 0
ExecutionTime = 0.145056 s  ClockTime = 0 s

Time = 0.35s

DICPCG:  Solving for T, Initial residual = 0.0015574, Final residual = 2.40848e-07, No Iterations 3
DICPCG:  Solving for T, Initial residual = 9.70832e-06, Final residual = 2.11816e-07, No Iterations 1
DICPCG:  Solving for T, Initial residual = 4.04165e-07, Final residual = 4.04165e-07, No Iterations 0
ExecutionTime = 0.146449 s  ClockTime = 0 s

Time = 0.355s

DICPCG:  Solving for T, Initial residual = 0.00153522, Final residual = 2.37494e-07, No Iterations 3
DICPCG:  Solving for T, Initial residual = 9.51032e-06, Final residual = 2.08224e-07, No Iterations 1
DICPCG:  Solving for T, Initial residual = 3.96867e-07, Final residual = 3.96867e-07, No Iterations 0
ExecutionTime = 0.147837 s  ClockTime = 0 s

Time = 0.36s

DICPCG:  Solving for T, Initial residual = 0.00151384, Final residual = 2.34251e-07, No Iterations 3
DICPCG:  Solving for T, Initial residual = 9.32078e-06, Final residual = 2.04757e-07, No Iterations 1
DICPCG:  Solving for T, Initial residual = 3.89844e-07, Final residual = 3.89844e-07, No Iterations 0
ExecutionTime = 0.149203 s  ClockTime = 0 s

Time = 0.365s

DICPCG:  Solving for T, Initial residual = 0.00149323, Final residual = 2.31116e-07, No Iterations 3
DICPCG:  Solving for T, Initial residual = 9.13863e-06, Final residual = 2.01402e-07, No Iterations 1
DICPCG:  Solving for T, Initial residual = 3.83015e-07, Final residual = 3.83015e-07, No Iterations 0
ExecutionTime = 0.150604 s  ClockTime = 0 s

Time = 0.37s

DICPCG:  Solving for T, Initial residual = 0.00147333, Final residual = 2.28084e-07, No Iterations 3
DICPCG:  Solving for T, Initial residual = 8.96268e-06, Final residual = 1.98157e-07, No Iterations 1
DICPCG:  Solving for T, Initial residual = 3.76382e-07, Final residual = 3.76382e-07, No Iterations 0
ExecutionTime = 0.151962 s  ClockTime = 0 s

Time = 0.375s

DICPCG:  Solving for T, Initial residual = 0.00145411, Final residual = 2.2515e-07, No Iterations 3
DICPCG:  Solving for T, Initial residual = 8.79296e-06, Final residual = 1.95025e-07, No Iterations 1
DICPCG:  Solving for T, Initial residual = 3.69943e-07, Final residual = 3.69943e-07, No Iterations 0
ExecutionTime = 0.153288 s  ClockTime = 0 s

Time = 0.38s

DICPCG:  Solving for T, Initial residual = 0.00143553, Final residual = 2.22306e-07, No Iterations 3
DICPCG:  Solving for T, Initial residual = 8.62918e-06, Final residual = 1.91974e-07, No Iterations 1
DICPCG:  Solving for T, Initial residual = 3.63709e-07, Final residual = 3.63709e-07, No Iterations 0
ExecutionTime = 0.154608 s  ClockTime = 0 s

Time = 0.385s

DICPCG:  Solving for T, Initial residual = 0.00141755, Final residual = 2.1955e-07, No Iterations 3
DICPCG:  Solving for T, Initial residual = 8.47396e-06, Final residual = 1.89014e-07, No Iterations 1
DICPCG:  Solving for T, Initial residual = 3.57737e-07, Final residual = 3.57737e-07, No Iterations 0
ExecutionTime = 0.15601 s  ClockTime = 0 s

Time = 0.39s

DICPCG:  Solving for T, Initial residual = 0.00140015, Final residual = 2.16877e-07, No Iterations 3
DICPCG:  Solving for T, Initial residual = 8.32503e-06, Final residual = 1.86141e-07, No Iterations 1
DICPCG:  Solving for T, Initial residual = 3.51944e-07, Final residual = 3.51944e-07, No Iterations 0
ExecutionTime = 0.157317 s  ClockTime = 0 s

Time = 0.395s

DICPCG:  Solving for T, Initial residual = 0.00138329, Final residual = 2.14287e-07, No Iterations 3
DICPCG:  Solving for T, Initial residual = 8.18078e-06, Final residual = 1.83356e-07, No Iterations 1
DICPCG:  Solving for T, Initial residual = 3.46352e-07, Final residual = 3.46352e-07, No Iterations 0
ExecutionTime = 0.158687 s  ClockTime = 0 s

Time = 0.4s

DICPCG:  Solving for T, Initial residual = 0.00136696, Final residual = 2.11773e-07, No Iterations 3
DICPCG:  Solving for T, Initial residual = 8.04201e-06, Final residual = 1.80636e-07, No Iterations 1
DICPCG:  Solving for T, Initial residual = 3.40928e-07, Final residual = 3.40928e-07, No Iterations 0
ExecutionTime = 0.1679 s  ClockTime = 0 s

Time = 0.405s

DICPCG:  Solving for T, Initial residual = 0.00135111, Final residual = 2.0933e-07, No Iterations 3
DICPCG:  Solving for T, Initial residual = 7.90811e-06, Final residual = 1.77991e-07, No Iterations 1
DICPCG:  Solving for T, Initial residual = 3.35668e-07, Final residual = 3.35668e-07, No Iterations 0
ExecutionTime = 0.169392 s  ClockTime = 0 s

Time = 0.41s

DICPCG:  Solving for T, Initial residual = 0.00133572, Final residual = 2.06955e-07, No Iterations 3
DICPCG:  Solving for T, Initial residual = 7.77845e-06, Final residual = 1.75421e-07, No Iterations 1
DICPCG:  Solving for T, Initial residual = 3.30546e-07, Final residual = 3.30546e-07, No Iterations 0
ExecutionTime = 0.170785 s  ClockTime = 0 s

Time = 0.415s

DICPCG:  Solving for T, Initial residual = 0.00132077, Final residual = 2.04643e-07, No Iterations 3
DICPCG:  Solving for T, Initial residual = 7.6535e-06, Final residual = 1.72922e-07, No Iterations 1
DICPCG:  Solving for T, Initial residual = 3.25556e-07, Final residual = 3.25556e-07, No Iterations 0
ExecutionTime = 0.172088 s  ClockTime = 0 s

Time = 0.42s

DICPCG:  Solving for T, Initial residual = 0.00130623, Final residual = 2.0239e-07, No Iterations 3
DICPCG:  Solving for T, Initial residual = 7.53295e-06, Final residual = 1.70501e-07, No Iterations 1
DICPCG:  Solving for T, Initial residual = 3.20697e-07, Final residual = 3.20697e-07, No Iterations 0
ExecutionTime = 0.173499 s  ClockTime = 0 s

Time = 0.425s

DICPCG:  Solving for T, Initial residual = 0.00129209, Final residual = 2.00192e-07, No Iterations 3
DICPCG:  Solving for T, Initial residual = 7.4158e-06, Final residual = 1.6815e-07, No Iterations 1
DICPCG:  Solving for T, Initial residual = 3.15952e-07, Final residual = 3.15952e-07, No Iterations 0
ExecutionTime = 0.174821 s  ClockTime = 0 s

Time = 0.43s

DICPCG:  Solving for T, Initial residual = 0.00127831, Final residual = 1.9805e-07, No Iterations 3
DICPCG:  Solving for T, Initial residual = 7.30212e-06, Final residual = 1.65855e-07, No Iterations 1
DICPCG:  Solving for T, Initial residual = 3.1133e-07, Final residual = 3.1133e-07, No Iterations 0
ExecutionTime = 0.176153 s  ClockTime = 0 s

Time = 0.435s

DICPCG:  Solving for T, Initial residual = 0.00126489, Final residual = 1.95959e-07, No Iterations 3
DICPCG:  Solving for T, Initial residual = 7.19178e-06, Final residual = 1.63624e-07, No Iterations 1
DICPCG:  Solving for T, Initial residual = 3.06836e-07, Final residual = 3.06836e-07, No Iterations 0
ExecutionTime = 0.17744 s  ClockTime = 0 s

Time = 0.44s

DICPCG:  Solving for T, Initial residual = 0.0012518, Final residual = 1.93915e-07, No Iterations 3
DICPCG:  Solving for T, Initial residual = 7.08573e-06, Final residual = 1.61444e-07, No Iterations 1
DICPCG:  Solving for T, Initial residual = 3.02482e-07, Final residual = 3.02482e-07, No Iterations 0
ExecutionTime = 0.178803 s  ClockTime = 0 s

Time = 0.445s

DICPCG:  Solving for T, Initial residual = 0.00123903, Final residual = 1.91921e-07, No Iterations 3
DICPCG:  Solving for T, Initial residual = 6.9824e-06, Final residual = 1.59324e-07, No Iterations 1
DICPCG:  Solving for T, Initial residual = 2.98263e-07, Final residual = 2.98263e-07, No Iterations 0
ExecutionTime = 0.180117 s  ClockTime = 0 s

Time = 0.45s

DICPCG:  Solving for T, Initial residual = 0.00122656, Final residual = 1.89973e-07, No Iterations 3
DICPCG:  Solving for T, Initial residual = 6.88148e-06, Final residual = 1.57271e-07, No Iterations 1
DICPCG:  Solving for T, Initial residual = 2.94176e-07, Final residual = 2.94176e-07, No Iterations 0
ExecutionTime = 0.1814 s  ClockTime = 0 s

Time = 0.455s

DICPCG:  Solving for T, Initial residual = 0.00121438, Final residual = 1.88069e-07, No Iterations 3
DICPCG:  Solving for T, Initial residual = 6.78326e-06, Final residual = 1.55285e-07, No Iterations 1
DICPCG:  Solving for T, Initial residual = 2.90197e-07, Final residual = 2.90197e-07, No Iterations 0
ExecutionTime = 0.182688 s  ClockTime = 0 s

Time = 0.46s

DICPCG:  Solving for T, Initial residual = 0.00120249, Final residual = 1.86205e-07, No Iterations 3
DICPCG:  Solving for T, Initial residual = 6.68763e-06, Final residual = 1.53358e-07, No Iterations 1
DICPCG:  Solving for T, Initial residual = 2.86327e-07, Final residual = 2.86327e-07, No Iterations 0
ExecutionTime = 0.18398 s  ClockTime = 0 s

Time = 0.465s

DICPCG:  Solving for T, Initial residual = 0.00119088, Final residual = 1.84382e-07, No Iterations 3
DICPCG:  Solving for T, Initial residual = 6.59432e-06, Final residual = 1.51468e-07, No Iterations 1
DICPCG:  Solving for T, Initial residual = 2.82605e-07, Final residual = 2.82605e-07, No Iterations 0
ExecutionTime = 0.185336 s  ClockTime = 0 s

Time = 0.47s

DICPCG:  Solving for T, Initial residual = 0.00117952, Final residual = 1.82596e-07, No Iterations 3
DICPCG:  Solving for T, Initial residual = 6.50323e-06, Final residual = 1.49618e-07, No Iterations 1
DICPCG:  Solving for T, Initial residual = 2.78964e-07, Final residual = 2.78964e-07, No Iterations 0
ExecutionTime = 0.186619 s  ClockTime = 0 s

Time = 0.475s

DICPCG:  Solving for T, Initial residual = 0.00116842, Final residual = 1.80846e-07, No Iterations 3
DICPCG:  Solving for T, Initial residual = 6.41452e-06, Final residual = 1.47811e-07, No Iterations 1
DICPCG:  Solving for T, Initial residual = 2.75408e-07, Final residual = 2.75408e-07, No Iterations 0
ExecutionTime = 0.187946 s  ClockTime = 0 s

Time = 0.48s

DICPCG:  Solving for T, Initial residual = 0.00115755, Final residual = 1.79134e-07, No Iterations 3
DICPCG:  Solving for T, Initial residual = 6.328e-06, Final residual = 1.46044e-07, No Iterations 1
DICPCG:  Solving for T, Initial residual = 2.71928e-07, Final residual = 2.71928e-07, No Iterations 0
ExecutionTime = 0.189371 s  ClockTime = 0 s

Time = 0.485s

DICPCG:  Solving for T, Initial residual = 0.00114691, Final residual = 1.77454e-07, No Iterations 3
DICPCG:  Solving for T, Initial residual = 6.24343e-06, Final residual = 1.44326e-07, No Iterations 1
DICPCG:  Solving for T, Initial residual = 2.68518e-07, Final residual = 2.68518e-07, No Iterations 0
ExecutionTime = 0.190699 s  ClockTime = 0 s

Time = 0.49s

DICPCG:  Solving for T, Initial residual = 0.00113648, Final residual = 1.75804e-07, No Iterations 3
DICPCG:  Solving for T, Initial residual = 6.16108e-06, Final residual = 1.42638e-07, No Iterations 1
DICPCG:  Solving for T, Initial residual = 2.65173e-07, Final residual = 2.65173e-07, No Iterations 0
ExecutionTime = 0.192072 s  ClockTime = 0 s

Time = 0.495s

DICPCG:  Solving for T, Initial residual = 0.00112627, Final residual = 1.74184e-07, No Iterations 3
DICPCG:  Solving for T, Initial residual = 6.08063e-06, Final residual = 1.40987e-07, No Iterations 1
DICPCG:  Solving for T, Initial residual = 2.61899e-07, Final residual = 2.61899e-07, No Iterations 0
ExecutionTime = 0.193415 s  ClockTime = 0 s

Time = 0.5s

DICPCG:  Solving for T, Initial residual = 0.00111627, Final residual = 1.72594e-07, No Iterations 3
DICPCG:  Solving for T, Initial residual = 6.00201e-06, Final residual = 1.39362e-07, No Iterations 1
DICPCG:  Solving for T, Initial residual = 2.58691e-07, Final residual = 2.58691e-07, No Iterations 0
ExecutionTime = 0.202942 s  ClockTime = 0 s

Time = 0.505s

DICPCG:  Solving for T, Initial residual = 0.00110646, Final residual = 1.71033e-07, No Iterations 3
DICPCG:  Solving for T, Initial residual = 5.92523e-06, Final residual = 1.37765e-07, No Iterations 1
DICPCG:  Solving for T, Initial residual = 2.55563e-07, Final residual = 2.55563e-07, No Iterations 0
ExecutionTime = 0.204532 s  ClockTime = 0 s

Time = 0.51s

DICPCG:  Solving for T, Initial residual = 0.00109685, Final residual = 1.69499e-07, No Iterations 3
DICPCG:  Solving for T, Initial residual = 5.85026e-06, Final residual = 1.3621e-07, No Iterations 1
DICPCG:  Solving for T, Initial residual = 2.52515e-07, Final residual = 2.52515e-07, No Iterations 0
ExecutionTime = 0.205942 s  ClockTime = 0 s

Time = 0.515s

DICPCG:  Solving for T, Initial residual = 0.00108743, Final residual = 1.67993e-07, No Iterations 3
DICPCG:  Solving for T, Initial residual = 5.77719e-06, Final residual = 1.34679e-07, No Iterations 1
DICPCG:  Solving for T, Initial residual = 2.49539e-07, Final residual = 2.49539e-07, No Iterations 0
ExecutionTime = 0.207353 s  ClockTime = 0 s

Time = 0.52s

DICPCG:  Solving for T, Initial residual = 0.00107818, Final residual = 1.66512e-07, No Iterations 3
DICPCG:  Solving for T, Initial residual = 5.70567e-06, Final residual = 1.33178e-07, No Iterations 1
DICPCG:  Solving for T, Initial residual = 2.46623e-07, Final residual = 2.46623e-07, No Iterations 0
ExecutionTime = 0.208703 s  ClockTime = 0 s

Time = 0.525s

DICPCG:  Solving for T, Initial residual = 0.00106909, Final residual = 1.65056e-07, No Iterations 3
DICPCG:  Solving for T, Initial residual = 5.63577e-06, Final residual = 1.31698e-07, No Iterations 1
DICPCG:  Solving for T, Initial residual = 2.43759e-07, Final residual = 2.43759e-07, No Iterations 0
ExecutionTime = 0.210055 s  ClockTime = 0 s

Time = 0.53s

DICPCG:  Solving for T, Initial residual = 0.00106018, Final residual = 1.63624e-07, No Iterations 3
DICPCG:  Solving for T, Initial residual = 5.56734e-06, Final residual = 1.30241e-07, No Iterations 1
DICPCG:  Solving for T, Initial residual = 2.4095e-07, Final residual = 2.4095e-07, No Iterations 0
ExecutionTime = 0.211412 s  ClockTime = 0 s

Time = 0.535s

DICPCG:  Solving for T, Initial residual = 0.00105141, Final residual = 1.62215e-07, No Iterations 3
DICPCG:  Solving for T, Initial residual = 5.50034e-06, Final residual = 1.28804e-07, No Iterations 1
DICPCG:  Solving for T, Initial residual = 2.38198e-07, Final residual = 2.38198e-07, No Iterations 0
ExecutionTime = 0.212785 s  ClockTime = 0 s

Time = 0.54s

DICPCG:  Solving for T, Initial residual = 0.00104279, Final residual = 1.60827e-07, No Iterations 3
DICPCG:  Solving for T, Initial residual = 5.43475e-06, Final residual = 1.27393e-07, No Iterations 1
DICPCG:  Solving for T, Initial residual = 2.35507e-07, Final residual = 2.35507e-07, No Iterations 0
ExecutionTime = 0.214131 s  ClockTime = 0 s

Time = 0.545s

DICPCG:  Solving for T, Initial residual = 0.00103432, Final residual = 1.5946e-07, No Iterations 3
DICPCG:  Solving for T, Initial residual = 5.37046e-06, Final residual = 1.26012e-07, No Iterations 1
DICPCG:  Solving for T, Initial residual = 2.32876e-07, Final residual = 2.32876e-07, No Iterations 0
ExecutionTime = 0.215476 s  ClockTime = 0 s

Time = 0.55s

DICPCG:  Solving for T, Initial residual = 0.00102599, Final residual = 1.58114e-07, No Iterations 3
DICPCG:  Solving for T, Initial residual = 5.30758e-06, Final residual = 1.24655e-07, No Iterations 1
DICPCG:  Solving for T, Initial residual = 2.303e-07, Final residual = 2.303e-07, No Iterations 0
ExecutionTime = 0.216838 s  ClockTime = 0 s

Time = 0.555s

DICPCG:  Solving for T, Initial residual = 0.00101778, Final residual = 1.56787e-07, No Iterations 3
DICPCG:  Solving for T, Initial residual = 5.24585e-06, Final residual = 1.23319e-07, No Iterations 1
DICPCG:  Solving for T, Initial residual = 2.27779e-07, Final residual = 2.27779e-07, No Iterations 0
ExecutionTime = 0.218188 s  ClockTime = 0 s

Time = 0.56s

DICPCG:  Solving for T, Initial residual = 0.00100971, Final residual = 1.5548e-07, No Iterations 3
DICPCG:  Solving for T, Initial residual = 5.18532e-06, Final residual = 1.22008e-07, No Iterations 1
DICPCG:  Solving for T, Initial residual = 2.25306e-07, Final residual = 2.25306e-07, No Iterations 0
ExecutionTime = 0.219596 s  ClockTime = 0 s

Time = 0.565s

DICPCG:  Solving for T, Initial residual = 0.00100177, Final residual = 1.54191e-07, No Iterations 3
DICPCG:  Solving for T, Initial residual = 5.12611e-06, Final residual = 1.20716e-07, No Iterations 1
DICPCG:  Solving for T, Initial residual = 2.22883e-07, Final residual = 2.22883e-07, No Iterations 0
ExecutionTime = 0.220955 s  ClockTime = 0 s

Time = 0.57s

DICPCG:  Solving for T, Initial residual = 0.000993961, Final residual = 1.52921e-07, No Iterations 3
DICPCG:  Solving for T, Initial residual = 5.06823e-06, Final residual = 1.19442e-07, No Iterations 1
DICPCG:  Solving for T, Initial residual = 2.20505e-07, Final residual = 2.20505e-07, No Iterations 0
ExecutionTime = 0.222308 s  ClockTime = 0 s

Time = 0.575s

DICPCG:  Solving for T, Initial residual = 0.000986265, Final residual = 1.51667e-07, No Iterations 3
DICPCG:  Solving for T, Initial residual = 5.01141e-06, Final residual = 1.18187e-07, No Iterations 1
DICPCG:  Solving for T, Initial residual = 2.18164e-07, Final residual = 2.18164e-07, No Iterations 0
ExecutionTime = 0.223664 s  ClockTime = 0 s

Time = 0.58s

DICPCG:  Solving for T, Initial residual = 0.000978683, Final residual = 1.5043e-07, No Iterations 3
DICPCG:  Solving for T, Initial residual = 4.95568e-06, Final residual = 1.16949e-07, No Iterations 1
DICPCG:  Solving for T, Initial residual = 2.1587e-07, Final residual = 2.1587e-07, No Iterations 0
ExecutionTime = 0.225008 s  ClockTime = 0 s

Time = 0.585s

DICPCG:  Solving for T, Initial residual = 0.000971215, Final residual = 1.49209e-07, No Iterations 3
DICPCG:  Solving for T, Initial residual = 4.90092e-06, Final residual = 1.15739e-07, No Iterations 1
DICPCG:  Solving for T, Initial residual = 2.13619e-07, Final residual = 2.13619e-07, No Iterations 0
ExecutionTime = 0.226376 s  ClockTime = 0 s

Time = 0.59s

DICPCG:  Solving for T, Initial residual = 0.000963857, Final residual = 1.48005e-07, No Iterations 3
DICPCG:  Solving for T, Initial residual = 4.84704e-06, Final residual = 1.14553e-07, No Iterations 1
DICPCG:  Solving for T, Initial residual = 2.114e-07, Final residual = 2.114e-07, No Iterations 0
ExecutionTime = 0.22777 s  ClockTime = 0 s

Time = 0.595s

DICPCG:  Solving for T, Initial residual = 0.000956606, Final residual = 1.46817e-07, No Iterations 3
DICPCG:  Solving for T, Initial residual = 4.79417e-06, Final residual = 1.13395e-07, No Iterations 1
DICPCG:  Solving for T, Initial residual = 2.09213e-07, Final residual = 2.09213e-07, No Iterations 0
ExecutionTime = 0.229114 s  ClockTime = 0 s

Time = 0.6s

DICPCG:  Solving for T, Initial residual = 0.000949454, Final residual = 1.45645e-07, No Iterations 3
DICPCG:  Solving for T, Initial residual = 4.7421e-06, Final residual = 1.12255e-07, No Iterations 1
DICPCG:  Solving for T, Initial residual = 2.07054e-07, Final residual = 2.07054e-07, No Iterations 0
ExecutionTime = 0.239054 s  ClockTime = 0 s

Time = 0.605s

DICPCG:  Solving for T, Initial residual = 0.000942395, Final residual = 1.44488e-07, No Iterations 3
DICPCG:  Solving for T, Initial residual = 4.69104e-06, Final residual = 1.1113e-07, No Iterations 1
DICPCG:  Solving for T, Initial residual = 2.04923e-07, Final residual = 2.04923e-07, No Iterations 0
ExecutionTime = 0.24059 s  ClockTime = 0 s

Time = 0.61s

DICPCG:  Solving for T, Initial residual = 0.000935433, Final residual = 1.43345e-07, No Iterations 3
DICPCG:  Solving for T, Initial residual = 4.64093e-06, Final residual = 1.10025e-07, No Iterations 1
DICPCG:  Solving for T, Initial residual = 2.02821e-07, Final residual = 2.02821e-07, No Iterations 0
ExecutionTime = 0.241987 s  ClockTime = 0 s

Time = 0.615s

DICPCG:  Solving for T, Initial residual = 0.000928567, Final residual = 1.42217e-07, No Iterations 3
DICPCG:  Solving for T, Initial residual = 4.59172e-06, Final residual = 1.08939e-07, No Iterations 1
DICPCG:  Solving for T, Initial residual = 2.00747e-07, Final residual = 2.00747e-07, No Iterations 0
ExecutionTime = 0.243369 s  ClockTime = 0 s

Time = 0.62s

DICPCG:  Solving for T, Initial residual = 0.000921797, Final residual = 1.41103e-07, No Iterations 3
DICPCG:  Solving for T, Initial residual = 4.54331e-06, Final residual = 1.07867e-07, No Iterations 1
DICPCG:  Solving for T, Initial residual = 1.98704e-07, Final residual = 1.98704e-07, No Iterations 0
ExecutionTime = 0.244706 s  ClockTime = 0 s

Time = 0.625s

DICPCG:  Solving for T, Initial residual = 0.000915119, Final residual = 1.40003e-07, No Iterations 3
DICPCG:  Solving for T, Initial residual = 4.49589e-06, Final residual = 1.0681e-07, No Iterations 1
DICPCG:  Solving for T, Initial residual = 1.96691e-07, Final residual = 1.96691e-07, No Iterations 0
ExecutionTime = 0.246104 s  ClockTime = 0 s

Time = 0.63s

DICPCG:  Solving for T, Initial residual = 0.00090853, Final residual = 1.38916e-07, No Iterations 3
DICPCG:  Solving for T, Initial residual = 4.44937e-06, Final residual = 1.05766e-07, No Iterations 1
DICPCG:  Solving for T, Initial residual = 1.94708e-07, Final residual = 1.94708e-07, No Iterations 0
ExecutionTime = 0.247542 s  ClockTime = 0 s

Time = 0.635s

DICPCG:  Solving for T, Initial residual = 0.00090203, Final residual = 1.37842e-07, No Iterations 3
DICPCG:  Solving for T, Initial residual = 4.40356e-06, Final residual = 1.04737e-07, No Iterations 1
DICPCG:  Solving for T, Initial residual = 1.92751e-07, Final residual = 1.92751e-07, No Iterations 0
ExecutionTime = 0.248914 s  ClockTime = 0 s

Time = 0.64s

DICPCG:  Solving for T, Initial residual = 0.000895614, Final residual = 1.3678e-07, No Iterations 3
DICPCG:  Solving for T, Initial residual = 4.35843e-06, Final residual = 1.03721e-07, No Iterations 1
DICPCG:  Solving for T, Initial residual = 1.90824e-07, Final residual = 1.90824e-07, No Iterations 0
ExecutionTime = 0.250423 s  ClockTime = 0 s

Time = 0.645s

DICPCG:  Solving for T, Initial residual = 0.000889275, Final residual = 1.35731e-07, No Iterations 3
DICPCG:  Solving for T, Initial residual = 4.31411e-06, Final residual = 1.02716e-07, No Iterations 1
DICPCG:  Solving for T, Initial residual = 1.88921e-07, Final residual = 1.88921e-07, No Iterations 0
ExecutionTime = 0.251845 s  ClockTime = 0 s

Time = 0.65s

DICPCG:  Solving for T, Initial residual = 0.000883011, Final residual = 1.34693e-07, No Iterations 3
DICPCG:  Solving for T, Initial residual = 4.27056e-06, Final residual = 1.01724e-07, No Iterations 1
DICPCG:  Solving for T, Initial residual = 1.87042e-07, Final residual = 1.87042e-07, No Iterations 0
ExecutionTime = 0.253219 s  ClockTime = 0 s

Time = 0.655s

DICPCG:  Solving for T, Initial residual = 0.000876825, Final residual = 1.33668e-07, No Iterations 3
DICPCG:  Solving for T, Initial residual = 4.22773e-06, Final residual = 1.00745e-07, No Iterations 1
DICPCG:  Solving for T, Initial residual = 1.85189e-07, Final residual = 1.85189e-07, No Iterations 0
ExecutionTime = 0.254547 s  ClockTime = 0 s

Time = 0.66s

DICPCG:  Solving for T, Initial residual = 0.000870716, Final residual = 1.32655e-07, No Iterations 3
DICPCG:  Solving for T, Initial residual = 4.18551e-06, Final residual = 9.97782e-08, No Iterations 1
DICPCG:  Solving for T, Initial residual = 1.83359e-07, Final residual = 1.83359e-07, No Iterations 0
ExecutionTime = 0.256397 s  ClockTime = 0 s

Time = 0.665s

DICPCG:  Solving for T, Initial residual = 0.000864683, Final residual = 1.31653e-07, No Iterations 3
DICPCG:  Solving for T, Initial residual = 4.1439e-06, Final residual = 9.88285e-08, No Iterations 1
DICPCG:  Solving for T, Initial residual = 1.81551e-07, Final residual = 1.81551e-07, No Iterations 0
ExecutionTime = 0.25835 s  ClockTime = 0 s

Time = 0.67s

DICPCG:  Solving for T, Initial residual = 0.000858723, Final residual = 1.30663e-07, No Iterations 3
DICPCG:  Solving for T, Initial residual = 4.10285e-06, Final residual = 9.78928e-08, No Iterations 1
DICPCG:  Solving for T, Initial residual = 1.79765e-07, Final residual = 1.79765e-07, No Iterations 0
ExecutionTime = 0.259849 s  ClockTime = 0 s

Time = 0.675s

DICPCG:  Solving for T, Initial residual = 0.000852834, Final residual = 1.29683e-07, No Iterations 3
DICPCG:  Solving for T, Initial residual = 4.06248e-06, Final residual = 9.69736e-08, No Iterations 1
DICPCG:  Solving for T, Initial residual = 1.78014e-07, Final residual = 1.78014e-07, No Iterations 0
ExecutionTime = 0.261301 s  ClockTime = 0 s

Time = 0.68s

DICPCG:  Solving for T, Initial residual = 0.000847015, Final residual = 1.28714e-07, No Iterations 3
DICPCG:  Solving for T, Initial residual = 4.02273e-06, Final residual = 9.60663e-08, No Iterations 1
DICPCG:  Solving for T, Initial residual = 1.76293e-07, Final residual = 1.76293e-07, No Iterations 0
ExecutionTime = 0.262734 s  ClockTime = 0 s

Time = 0.685s

DICPCG:  Solving for T, Initial residual = 0.000841264, Final residual = 1.27755e-07, No Iterations 3
DICPCG:  Solving for T, Initial residual = 3.98363e-06, Final residual = 9.51694e-08, No Iterations 1
DICPCG:  Solving for T, Initial residual = 1.746e-07, Final residual = 1.746e-07, No Iterations 0
ExecutionTime = 0.264113 s  ClockTime = 0 s

Time = 0.69s

DICPCG:  Solving for T, Initial residual = 0.000835579, Final residual = 1.26806e-07, No Iterations 3
DICPCG:  Solving for T, Initial residual = 3.94514e-06, Final residual = 9.42832e-08, No Iterations 1
DICPCG:  Solving for T, Initial residual = 1.7293e-07, Final residual = 1.7293e-07, No Iterations 0
ExecutionTime = 0.265461 s  ClockTime = 0 s

Time = 0.695s

DICPCG:  Solving for T, Initial residual = 0.000829962, Final residual = 1.25869e-07, No Iterations 3
DICPCG:  Solving for T, Initial residual = 3.90728e-06, Final residual = 9.34072e-08, No Iterations 1
DICPCG:  Solving for T, Initial residual = 1.71284e-07, Final residual = 1.71284e-07, No Iterations 0
ExecutionTime = 0.266925 s  ClockTime = 0 s

Time = 0.7s

DICPCG:  Solving for T, Initial residual = 0.000824409, Final residual = 1.24941e-07, No Iterations 3
DICPCG:  Solving for T, Initial residual = 3.86994e-06, Final residual = 9.25458e-08, No Iterations 1
DICPCG:  Solving for T, Initial residual = 1.69663e-07, Final residual = 1.69663e-07, No Iterations 0
ExecutionTime = 0.276645 s  ClockTime = 0 s

Time = 0.705s

DICPCG:  Solving for T, Initial residual = 0.000818921, Final residual = 1.24023e-07, No Iterations 3
DICPCG:  Solving for T, Initial residual = 3.8331e-06, Final residual = 9.16959e-08, No Iterations 1
DICPCG:  Solving for T, Initial residual = 1.68063e-07, Final residual = 1.68063e-07, No Iterations 0
ExecutionTime = 0.278252 s  ClockTime = 0 s

Time = 0.71s

DICPCG:  Solving for T, Initial residual = 0.000813495, Final residual = 1.23115e-07, No Iterations 3
DICPCG:  Solving for T, Initial residual = 3.79682e-06, Final residual = 9.08562e-08, No Iterations 1
DICPCG:  Solving for T, Initial residual = 1.66486e-07, Final residual = 1.66486e-07, No Iterations 0
ExecutionTime = 0.279687 s  ClockTime = 0 s

Time = 0.715s

DICPCG:  Solving for T, Initial residual = 0.00080813, Final residual = 1.22217e-07, No Iterations 3
DICPCG:  Solving for T, Initial residual = 3.761e-06, Final residual = 9.00257e-08, No Iterations 1
DICPCG:  Solving for T, Initial residual = 1.6493e-07, Final residual = 1.6493e-07, No Iterations 0
ExecutionTime = 0.281116 s  ClockTime = 0 s

Time = 0.72s

DICPCG:  Solving for T, Initial residual = 0.000802826, Final residual = 1.21328e-07, No Iterations 3
DICPCG:  Solving for T, Initial residual = 3.72575e-06, Final residual = 8.92051e-08, No Iterations 1
DICPCG:  Solving for T, Initial residual = 1.63395e-07, Final residual = 1.63395e-07, No Iterations 0
ExecutionTime = 0.282489 s  ClockTime = 0 s

Time = 0.725s

DICPCG:  Solving for T, Initial residual = 0.000797579, Final residual = 1.20448e-07, No Iterations 3
DICPCG:  Solving for T, Initial residual = 3.69097e-06, Final residual = 8.83941e-08, No Iterations 1
DICPCG:  Solving for T, Initial residual = 1.61879e-07, Final residual = 1.61879e-07, No Iterations 0
ExecutionTime = 0.28385 s  ClockTime = 0 s

Time = 0.73s

DICPCG:  Solving for T, Initial residual = 0.00079239, Final residual = 1.19577e-07, No Iterations 3
DICPCG:  Solving for T, Initial residual = 3.65665e-06, Final residual = 8.75927e-08, No Iterations 1
DICPCG:  Solving for T, Initial residual = 1.60382e-07, Final residual = 1.60382e-07, No Iterations 0
ExecutionTime = 0.285242 s  ClockTime = 0 s

Time = 0.735s

DICPCG:  Solving for T, Initial residual = 0.000787254, Final residual = 1.18715e-07, No Iterations 3
DICPCG:  Solving for T, Initial residual = 3.62271e-06, Final residual = 8.67995e-08, No Iterations 1
DICPCG:  Solving for T, Initial residual = 1.58904e-07, Final residual = 1.58904e-07, No Iterations 0
ExecutionTime = 0.286661 s  ClockTime = 0 s

Time = 0.74s

DICPCG:  Solving for T, Initial residual = 0.000782169, Final residual = 1.1786e-07, No Iterations 3
DICPCG:  Solving for T, Initial residual = 3.58918e-06, Final residual = 8.6015e-08, No Iterations 1
DICPCG:  Solving for T, Initial residual = 1.57443e-07, Final residual = 1.57443e-07, No Iterations 0
ExecutionTime = 0.288107 s  ClockTime = 0 s

Time = 0.745s

DICPCG:  Solving for T, Initial residual = 0.000777137, Final residual = 1.17015e-07, No Iterations 3
DICPCG:  Solving for T, Initial residual = 3.5561e-06, Final residual = 8.52395e-08, No Iterations 1
DICPCG:  Solving for T, Initial residual = 1.56e-07, Final residual = 1.56e-07, No Iterations 0
ExecutionTime = 0.289457 s  ClockTime = 0 s

Time = 0.75s

DICPCG:  Solving for T, Initial residual = 0.000772157, Final residual = 1.16178e-07, No Iterations 3
DICPCG:  Solving for T, Initial residual = 3.52352e-06, Final residual = 8.44728e-08, No Iterations 1
DICPCG:  Solving for T, Initial residual = 1.54581e-07, Final residual = 1.54581e-07, No Iterations 0
ExecutionTime = 0.290851 s  ClockTime = 0 s

Time = 0.755s

DICPCG:  Solving for T, Initial residual = 0.000767229, Final residual = 1.1535e-07, No Iterations 3
DICPCG:  Solving for T, Initial residual = 3.49136e-06, Final residual = 8.37153e-08, No Iterations 1
DICPCG:  Solving for T, Initial residual = 1.53182e-07, Final residual = 1.53182e-07, No Iterations 0
ExecutionTime = 0.292289 s  ClockTime = 0 s

Time = 0.76s

DICPCG:  Solving for T, Initial residual = 0.000762352, Final residual = 1.1453e-07, No Iterations 3
DICPCG:  Solving for T, Initial residual = 3.45964e-06, Final residual = 8.29662e-08, No Iterations 1
DICPCG:  Solving for T, Initial residual = 1.518e-07, Final residual = 1.518e-07, No Iterations 0
ExecutionTime = 0.293621 s  ClockTime = 0 s

Time = 0.765s

DICPCG:  Solving for T, Initial residual = 0.000757524, Final residual = 1.13717e-07, No Iterations 3
DICPCG:  Solving for T, Initial residual = 3.42829e-06, Final residual = 8.22271e-08, No Iterations 1
DICPCG:  Solving for T, Initial residual = 1.50439e-07, Final residual = 1.50439e-07, No Iterations 0
ExecutionTime = 0.294963 s  ClockTime = 0 s

Time = 0.77s

DICPCG:  Solving for T, Initial residual = 0.000752743, Final residual = 1.12912e-07, No Iterations 3
DICPCG:  Solving for T, Initial residual = 3.39732e-06, Final residual = 8.14953e-08, No Iterations 1
DICPCG:  Solving for T, Initial residual = 1.49093e-07, Final residual = 1.49093e-07, No Iterations 0
ExecutionTime = 0.296447 s  ClockTime = 0 s

Time = 0.775s

DICPCG:  Solving for T, Initial residual = 0.00074801, Final residual = 1.12115e-07, No Iterations 3
DICPCG:  Solving for T, Initial residual = 3.3667e-06, Final residual = 8.07715e-08, No Iterations 1
DICPCG:  Solving for T, Initial residual = 1.47766e-07, Final residual = 1.47766e-07, No Iterations 0
ExecutionTime = 0.297832 s  ClockTime = 0 s

Time = 0.78s

DICPCG:  Solving for T, Initial residual = 0.000743324, Final residual = 1.11326e-07, No Iterations 3
DICPCG:  Solving for T, Initial residual = 3.33646e-06, Final residual = 8.00588e-08, No Iterations 1
DICPCG:  Solving for T, Initial residual = 1.46454e-07, Final residual = 1.46454e-07, No Iterations 0
ExecutionTime = 0.300148 s  ClockTime = 0 s

Time = 0.785s

DICPCG:  Solving for T, Initial residual = 0.000738684, Final residual = 1.10544e-07, No Iterations 3
DICPCG:  Solving for T, Initial residual = 3.30662e-06, Final residual = 7.93536e-08, No Iterations 1
DICPCG:  Solving for T, Initial residual = 1.45166e-07, Final residual = 1.45166e-07, No Iterations 0
ExecutionTime = 0.301714 s  ClockTime = 0 s

Time = 0.79s

DICPCG:  Solving for T, Initial residual = 0.00073409, Final residual = 1.09769e-07, No Iterations 3
DICPCG:  Solving for T, Initial residual = 3.27715e-06, Final residual = 7.86566e-08, No Iterations 1
DICPCG:  Solving for T, Initial residual = 1.43901e-07, Final residual = 1.43901e-07, No Iterations 0
ExecutionTime = 0.303222 s  ClockTime = 0 s

Time = 0.795s

DICPCG:  Solving for T, Initial residual = 0.000729542, Final residual = 1.09002e-07, No Iterations 3
DICPCG:  Solving for T, Initial residual = 3.24805e-06, Final residual = 7.79669e-08, No Iterations 1
DICPCG:  Solving for T, Initial residual = 1.4265e-07, Final residual = 1.4265e-07, No Iterations 0
ExecutionTime = 0.304712 s  ClockTime = 0 s

Time = 0.8s

DICPCG:  Solving for T, Initial residual = 0.000725037, Final residual = 1.08243e-07, No Iterations 3
DICPCG:  Solving for T, Initial residual = 3.21939e-06, Final residual = 7.72841e-08, No Iterations 1
DICPCG:  Solving for T, Initial residual = 1.41414e-07, Final residual = 1.41414e-07, No Iterations 0
ExecutionTime = 0.316819 s  ClockTime = 0 s

Time = 0.805s

DICPCG:  Solving for T, Initial residual = 0.000720576, Final residual = 1.07491e-07, No Iterations 3
DICPCG:  Solving for T, Initial residual = 3.19109e-06, Final residual = 7.66102e-08, No Iterations 1
DICPCG:  Solving for T, Initial residual = 1.40191e-07, Final residual = 1.40191e-07, No Iterations 0
ExecutionTime = 0.318954 s  ClockTime = 0 s

Time = 0.81s

DICPCG:  Solving for T, Initial residual = 0.000716158, Final residual = 1.06745e-07, No Iterations 3
DICPCG:  Solving for T, Initial residual = 3.16315e-06, Final residual = 7.59443e-08, No Iterations 1
DICPCG:  Solving for T, Initial residual = 1.38982e-07, Final residual = 1.38982e-07, No Iterations 0
ExecutionTime = 0.32098 s  ClockTime = 0 s

Time = 0.815s

DICPCG:  Solving for T, Initial residual = 0.000711782, Final residual = 1.06007e-07, No Iterations 3
DICPCG:  Solving for T, Initial residual = 3.13553e-06, Final residual = 7.52865e-08, No Iterations 1
DICPCG:  Solving for T, Initial residual = 1.37785e-07, Final residual = 1.37785e-07, No Iterations 0
ExecutionTime = 0.322763 s  ClockTime = 0 s

Time = 0.82s

DICPCG:  Solving for T, Initial residual = 0.000707448, Final residual = 1.05276e-07, No Iterations 3
DICPCG:  Solving for T, Initial residual = 3.10821e-06, Final residual = 7.4635e-08, No Iterations 1
DICPCG:  Solving for T, Initial residual = 1.36602e-07, Final residual = 1.36602e-07, No Iterations 0
ExecutionTime = 0.324471 s  ClockTime = 0 s

Time = 0.825s

DICPCG:  Solving for T, Initial residual = 0.000703155, Final residual = 1.04552e-07, No Iterations 3
DICPCG:  Solving for T, Initial residual = 3.0812e-06, Final residual = 7.399e-08, No Iterations 1
DICPCG:  Solving for T, Initial residual = 1.35432e-07, Final residual = 1.35432e-07, No Iterations 0
ExecutionTime = 0.326222 s  ClockTime = 0 s

Time = 0.83s

DICPCG:  Solving for T, Initial residual = 0.000698901, Final residual = 1.03835e-07, No Iterations 3
DICPCG:  Solving for T, Initial residual = 3.05449e-06, Final residual = 7.3352e-08, No Iterations 1
DICPCG:  Solving for T, Initial residual = 1.34276e-07, Final residual = 1.34276e-07, No Iterations 0
ExecutionTime = 0.327711 s  ClockTime = 0 s

Time = 0.835s

DICPCG:  Solving for T, Initial residual = 0.000694686, Final residual = 1.03124e-07, No Iterations 3
DICPCG:  Solving for T, Initial residual = 3.02804e-06, Final residual = 7.27204e-08, No Iterations 1
DICPCG:  Solving for T, Initial residual = 1.33133e-07, Final residual = 1.33133e-07, No Iterations 0
ExecutionTime = 0.32975 s  ClockTime = 0 s

Time = 0.84s

DICPCG:  Solving for T, Initial residual = 0.00069051, Final residual = 1.0242e-07, No Iterations 3
DICPCG:  Solving for T, Initial residual = 3.00187e-06, Final residual = 7.20948e-08, No Iterations 1
DICPCG:  Solving for T, Initial residual = 1.32001e-07, Final residual = 1.32001e-07, No Iterations 0
ExecutionTime = 0.331536 s  ClockTime = 0 s

Time = 0.845s

DICPCG:  Solving for T, Initial residual = 0.00068637, Final residual = 1.01722e-07, No Iterations 3
DICPCG:  Solving for T, Initial residual = 2.97601e-06, Final residual = 7.1475e-08, No Iterations 1
DICPCG:  Solving for T, Initial residual = 1.30881e-07, Final residual = 1.30881e-07, No Iterations 0
ExecutionTime = 0.333154 s  ClockTime = 0 s

Time = 0.85s

DICPCG:  Solving for T, Initial residual = 0.000682268, Final residual = 1.0103e-07, No Iterations 3
DICPCG:  Solving for T, Initial residual = 2.95044e-06, Final residual = 7.08641e-08, No Iterations 1
DICPCG:  Solving for T, Initial residual = 1.29771e-07, Final residual = 1.29771e-07, No Iterations 0
ExecutionTime = 0.334807 s  ClockTime = 0 s

Time = 0.855s

DICPCG:  Solving for T, Initial residual = 0.000678203, Final residual = 1.00345e-07, No Iterations 3
DICPCG:  Solving for T, Initial residual = 2.92514e-06, Final residual = 7.02598e-08, No Iterations 1
DICPCG:  Solving for T, Initial residual = 1.28674e-07, Final residual = 1.28674e-07, No Iterations 0
ExecutionTime = 0.336861 s  ClockTime = 0 s

Time = 0.86s

DICPCG:  Solving for T, Initial residual = 0.000674175, Final residual = 9.96659e-08, No Iterations 3
DICPCG:  Solving for T, Initial residual = 2.90013e-06, Final residual = 6.96621e-08, No Iterations 1
DICPCG:  Solving for T, Initial residual = 1.27589e-07, Final residual = 1.27589e-07, No Iterations 0
ExecutionTime = 0.338438 s  ClockTime = 0 s

Time = 0.865s

DICPCG:  Solving for T, Initial residual = 0.000670182, Final residual = 9.8993e-08, No Iterations 3
DICPCG:  Solving for T, Initial residual = 2.8754e-06, Final residual = 6.90708e-08, No Iterations 1
DICPCG:  Solving for T, Initial residual = 1.26515e-07, Final residual = 1.26515e-07, No Iterations 0
ExecutionTime = 0.339897 s  ClockTime = 0 s

Time = 0.87s

DICPCG:  Solving for T, Initial residual = 0.000666225, Final residual = 9.83262e-08, No Iterations 3
DICPCG:  Solving for T, Initial residual = 2.85091e-06, Final residual = 6.84855e-08, No Iterations 1
DICPCG:  Solving for T, Initial residual = 1.25451e-07, Final residual = 1.25451e-07, No Iterations 0
ExecutionTime = 0.341393 s  ClockTime = 0 s

Time = 0.875s

DICPCG:  Solving for T, Initial residual = 0.000662303, Final residual = 9.76653e-08, No Iterations 3
DICPCG:  Solving for T, Initial residual = 2.82669e-06, Final residual = 6.79066e-08, No Iterations 1
DICPCG:  Solving for T, Initial residual = 1.24398e-07, Final residual = 1.24398e-07, No Iterations 0
ExecutionTime = 0.342906 s  ClockTime = 0 s

Time = 0.88s

DICPCG:  Solving for T, Initial residual = 0.000658416, Final residual = 9.70105e-08, No Iterations 3
DICPCG:  Solving for T, Initial residual = 2.80274e-06, Final residual = 6.73332e-08, No Iterations 1
DICPCG:  Solving for T, Initial residual = 1.23358e-07, Final residual = 1.23358e-07, No Iterations 0
ExecutionTime = 0.34468 s  ClockTime = 0 s

Time = 0.885s

DICPCG:  Solving for T, Initial residual = 0.000654563, Final residual = 9.63617e-08, No Iterations 3
DICPCG:  Solving for T, Initial residual = 2.77906e-06, Final residual = 6.67652e-08, No Iterations 1
DICPCG:  Solving for T, Initial residual = 1.22329e-07, Final residual = 1.22329e-07, No Iterations 0
ExecutionTime = 0.346753 s  ClockTime = 0 s

Time = 0.89s

DICPCG:  Solving for T, Initial residual = 0.000650744, Final residual = 9.57189e-08, No Iterations 3
DICPCG:  Solving for T, Initial residual = 2.75565e-06, Final residual = 6.62028e-08, No Iterations 1
DICPCG:  Solving for T, Initial residual = 1.21312e-07, Final residual = 1.21312e-07, No Iterations 0
ExecutionTime = 0.348862 s  ClockTime = 0 s

Time = 0.895s

DICPCG:  Solving for T, Initial residual = 0.000646957, Final residual = 9.50818e-08, No Iterations 3
DICPCG:  Solving for T, Initial residual = 2.73253e-06, Final residual = 6.56457e-08, No Iterations 1
DICPCG:  Solving for T, Initial residual = 1.20304e-07, Final residual = 1.20304e-07, No Iterations 0
ExecutionTime = 0.350863 s  ClockTime = 0 s

Time = 0.9s

DICPCG:  Solving for T, Initial residual = 0.000643204, Final residual = 9.44504e-08, No Iterations 3
DICPCG:  Solving for T, Initial residual = 2.7097e-06, Final residual = 6.50944e-08, No Iterations 1
DICPCG:  Solving for T, Initial residual = 1.19306e-07, Final residual = 1.19306e-07, No Iterations 0
ExecutionTime = 0.361138 s  ClockTime = 0 s

Time = 0.905s

DICPCG:  Solving for T, Initial residual = 0.000639483, Final residual = 9.38245e-08, No Iterations 3
DICPCG:  Solving for T, Initial residual = 2.68719e-06, Final residual = 6.45484e-08, No Iterations 1
DICPCG:  Solving for T, Initial residual = 1.18319e-07, Final residual = 1.18319e-07, No Iterations 0
ExecutionTime = 0.362768 s  ClockTime = 0 s

Time = 0.91s

DICPCG:  Solving for T, Initial residual = 0.000635794, Final residual = 9.32043e-08, No Iterations 3
DICPCG:  Solving for T, Initial residual = 2.66494e-06, Final residual = 6.40083e-08, No Iterations 1
DICPCG:  Solving for T, Initial residual = 1.17342e-07, Final residual = 1.17342e-07, No Iterations 0
ExecutionTime = 0.364083 s  ClockTime = 0 s

Time = 0.915s

DICPCG:  Solving for T, Initial residual = 0.000632136, Final residual = 9.25896e-08, No Iterations 3
DICPCG:  Solving for T, Initial residual = 2.64291e-06, Final residual = 6.34742e-08, No Iterations 1
DICPCG:  Solving for T, Initial residual = 1.16375e-07, Final residual = 1.16375e-07, No Iterations 0
ExecutionTime = 0.36541 s  ClockTime = 0 s

Time = 0.92s

DICPCG:  Solving for T, Initial residual = 0.000628508, Final residual = 9.19804e-08, No Iterations 3
DICPCG:  Solving for T, Initial residual = 2.6211e-06, Final residual = 6.29452e-08, No Iterations 1
DICPCG:  Solving for T, Initial residual = 1.15417e-07, Final residual = 1.15417e-07, No Iterations 0
ExecutionTime = 0.366838 s  ClockTime = 0 s

Time = 0.925s

DICPCG:  Solving for T, Initial residual = 0.000624912, Final residual = 9.13764e-08, No Iterations 3
DICPCG:  Solving for T, Initial residual = 2.59953e-06, Final residual = 6.24214e-08, No Iterations 1
DICPCG:  Solving for T, Initial residual = 1.14469e-07, Final residual = 1.14469e-07, No Iterations 0
ExecutionTime = 0.368197 s  ClockTime = 0 s

Time = 0.93s

DICPCG:  Solving for T, Initial residual = 0.000621345, Final residual = 9.07776e-08, No Iterations 3
DICPCG:  Solving for T, Initial residual = 2.57821e-06, Final residual = 6.19028e-08, No Iterations 1
DICPCG:  Solving for T, Initial residual = 1.13532e-07, Final residual = 1.13532e-07, No Iterations 0
ExecutionTime = 0.369473 s  ClockTime = 0 s

Time = 0.935s

DICPCG:  Solving for T, Initial residual = 0.000617807, Final residual = 9.0184e-08, No Iterations 3
DICPCG:  Solving for T, Initial residual = 2.55712e-06, Final residual = 6.13891e-08, No Iterations 1
DICPCG:  Solving for T, Initial residual = 1.12607e-07, Final residual = 1.12607e-07, No Iterations 0
ExecutionTime = 0.37076 s  ClockTime = 0 s

Time = 0.94s

DICPCG:  Solving for T, Initial residual = 0.000614298, Final residual = 8.95954e-08, No Iterations 3
DICPCG:  Solving for T, Initial residual = 2.53627e-06, Final residual = 6.08805e-08, No Iterations 1
DICPCG:  Solving for T, Initial residual = 1.11692e-07, Final residual = 1.11692e-07, No Iterations 0
ExecutionTime = 0.372079 s  ClockTime = 0 s

Time = 0.945s

DICPCG:  Solving for T, Initial residual = 0.000610817, Final residual = 8.90119e-08, No Iterations 3
DICPCG:  Solving for T, Initial residual = 2.51563e-06, Final residual = 6.03774e-08, No Iterations 1
DICPCG:  Solving for T, Initial residual = 1.10786e-07, Final residual = 1.10786e-07, No Iterations 0
ExecutionTime = 0.37342 s  ClockTime = 0 s

Time = 0.95s

DICPCG:  Solving for T, Initial residual = 0.000607365, Final residual = 8.84333e-08, No Iterations 3
DICPCG:  Solving for T, Initial residual = 2.49521e-06, Final residual = 5.98794e-08, No Iterations 1
DICPCG:  Solving for T, Initial residual = 1.09888e-07, Final residual = 1.09888e-07, No Iterations 0
ExecutionTime = 0.374781 s  ClockTime = 0 s

Time = 0.955s

DICPCG:  Solving for T, Initial residual = 0.00060394, Final residual = 8.78595e-08, No Iterations 3
DICPCG:  Solving for T, Initial residual = 2.47498e-06, Final residual = 5.9386e-08, No Iterations 1
DICPCG:  Solving for T, Initial residual = 1.08999e-07, Final residual = 1.08999e-07, No Iterations 0
ExecutionTime = 0.376205 s  ClockTime = 0 s

Time = 0.96s

DICPCG:  Solving for T, Initial residual = 0.000600543, Final residual = 8.72907e-08, No Iterations 3
DICPCG:  Solving for T, Initial residual = 2.45498e-06, Final residual = 5.8897e-08, No Iterations 1
DICPCG:  Solving for T, Initial residual = 1.08119e-07, Final residual = 1.08119e-07, No Iterations 0
ExecutionTime = 0.377687 s  ClockTime = 0 s

Time = 0.965s

DICPCG:  Solving for T, Initial residual = 0.000597173, Final residual = 9.95468e-07, No Iterations 2
DICPCG:  Solving for T, Initial residual = 2.78084e-06, Final residual = 1.07341e-07, No Iterations 1
DICPCG:  Solving for T, Initial residual = 1.53359e-07, Final residual = 1.53359e-07, No Iterations 0
ExecutionTime = 0.378987 s  ClockTime = 0 s

Time = 0.97s

DICPCG:  Solving for T, Initial residual = 0.00059383, Final residual = 9.90159e-07, No Iterations 2
DICPCG:  Solving for T, Initial residual = 2.75832e-06, Final residual = 1.06364e-07, No Iterations 1
DICPCG:  Solving for T, Initial residual = 1.5201e-07, Final residual = 1.5201e-07, No Iterations 0
ExecutionTime = 0.380306 s  ClockTime = 0 s

Time = 0.975s

DICPCG:  Solving for T, Initial residual = 0.000590514, Final residual = 9.84317e-07, No Iterations 2
DICPCG:  Solving for T, Initial residual = 2.73696e-06, Final residual = 1.05499e-07, No Iterations 1
DICPCG:  Solving for T, Initial residual = 1.50753e-07, Final residual = 1.50753e-07, No Iterations 0
ExecutionTime = 0.381597 s  ClockTime = 0 s

Time = 0.98s

DICPCG:  Solving for T, Initial residual = 0.000587224, Final residual = 9.78391e-07, No Iterations 2
DICPCG:  Solving for T, Initial residual = 2.71604e-06, Final residual = 1.04695e-07, No Iterations 1
DICPCG:  Solving for T, Initial residual = 1.49558e-07, Final residual = 1.49558e-07, No Iterations 0
ExecutionTime = 0.382882 s  ClockTime = 0 s

Time = 0.985s

DICPCG:  Solving for T, Initial residual = 0.00058396, Final residual = 9.7247e-07, No Iterations 2
DICPCG:  Solving for T, Initial residual = 2.69544e-06, Final residual = 1.03919e-07, No Iterations 1
DICPCG:  Solving for T, Initial residual = 1.48397e-07, Final residual = 1.48397e-07, No Iterations 0
ExecutionTime = 0.38417 s  ClockTime = 0 s

Time = 0.99s

DICPCG:  Solving for T, Initial residual = 0.000580722, Final residual = 9.66577e-07, No Iterations 2
DICPCG:  Solving for T, Initial residual = 2.67507e-06, Final residual = 1.03161e-07, No Iterations 1
DICPCG:  Solving for T, Initial residual = 1.47256e-07, Final residual = 1.47256e-07, No Iterations 0
ExecutionTime = 0.385514 s  ClockTime = 0 s

Time = 0.995s

DICPCG:  Solving for T, Initial residual = 0.00057751, Final residual = 9.60723e-07, No Iterations 2
DICPCG:  Solving for T, Initial residual = 2.65492e-06, Final residual = 1.02414e-07, No Iterations 1
DICPCG:  Solving for T, Initial residual = 1.46131e-07, Final residual = 1.46131e-07, No Iterations 0
ExecutionTime = 0.386885 s  ClockTime = 0 s

Time = 1s

DICPCG:  Solving for T, Initial residual = 0.000574322, Final residual = 9.54911e-07, No Iterations 2
DICPCG:  Solving for T, Initial residual = 2.63496e-06, Final residual = 1.01677e-07, No Iterations 1
DICPCG:  Solving for T, Initial residual = 1.4502e-07, Final residual = 1.4502e-07, No Iterations 0
ExecutionTime = 0.396417 s  ClockTime = 0 s

Time = 1.005s

DICPCG:  Solving for T, Initial residual = 0.00057116, Final residual = 9.49144e-07, No Iterations 2
DICPCG:  Solving for T, Initial residual = 2.6152e-06, Final residual = 1.00948e-07, No Iterations 1
DICPCG:  Solving for T, Initial residual = 1.4392e-07, Final residual = 1.4392e-07, No Iterations 0
ExecutionTime = 0.397864 s  ClockTime = 0 s

Time = 1.01s

DICPCG:  Solving for T, Initial residual = 0.000568022, Final residual = 9.43422e-07, No Iterations 2
DICPCG:  Solving for T, Initial residual = 2.59564e-06, Final residual = 1.00227e-07, No Iterations 1
DICPCG:  Solving for T, Initial residual = 1.42832e-07, Final residual = 1.42832e-07, No Iterations 0
ExecutionTime = 0.39917 s  ClockTime = 0 s

Time = 1.015s

DICPCG:  Solving for T, Initial residual = 0.000564908, Final residual = 9.37747e-07, No Iterations 2
DICPCG:  Solving for T, Initial residual = 2.57628e-06, Final residual = 9.95132e-08, No Iterations 1
DICPCG:  Solving for T, Initial residual = 1.41755e-07, Final residual = 1.41755e-07, No Iterations 0
ExecutionTime = 0.400471 s  ClockTime = 0 s

Time = 1.02s

DICPCG:  Solving for T, Initial residual = 0.000561819, Final residual = 9.32116e-07, No Iterations 2
DICPCG:  Solving for T, Initial residual = 2.5571e-06, Final residual = 9.88074e-08, No Iterations 1
DICPCG:  Solving for T, Initial residual = 1.40692e-07, Final residual = 1.40692e-07, No Iterations 0
ExecutionTime = 0.401757 s  ClockTime = 0 s

Time = 1.025s

DICPCG:  Solving for T, Initial residual = 0.000558753, Final residual = 9.26531e-07, No Iterations 2
DICPCG:  Solving for T, Initial residual = 2.53809e-06, Final residual = 9.81098e-08, No Iterations 1
DICPCG:  Solving for T, Initial residual = 1.3964e-07, Final residual = 1.3964e-07, No Iterations 0
ExecutionTime = 0.403064 s  ClockTime = 0 s

Time = 1.03s

DICPCG:  Solving for T, Initial residual = 0.000555709, Final residual = 9.20992e-07, No Iterations 2
DICPCG:  Solving for T, Initial residual = 2.51929e-06, Final residual = 9.74198e-08, No Iterations 1
DICPCG:  Solving for T, Initial residual = 1.38598e-07, Final residual = 1.38598e-07, No Iterations 0
ExecutionTime = 0.404357 s  ClockTime = 0 s

Time = 1.035s

DICPCG:  Solving for T, Initial residual = 0.000552689, Final residual = 9.15499e-07, No Iterations 2
DICPCG:  Solving for T, Initial residual = 2.50067e-06, Final residual = 9.67367e-08, No Iterations 1
DICPCG:  Solving for T, Initial residual = 1.37566e-07, Final residual = 1.37566e-07, No Iterations 0
ExecutionTime = 0.405642 s  ClockTime = 0 s

Time = 1.04s

DICPCG:  Solving for T, Initial residual = 0.000549692, Final residual = 9.1005e-07, No Iterations 2
DICPCG:  Solving for T, Initial residual = 2.48222e-06, Final residual = 9.606e-08, No Iterations 1
DICPCG:  Solving for T, Initial residual = 1.36544e-07, Final residual = 1.36544e-07, No Iterations 0
ExecutionTime = 0.406948 s  ClockTime = 0 s

Time = 1.045s

DICPCG:  Solving for T, Initial residual = 0.000546717, Final residual = 9.04645e-07, No Iterations 2
DICPCG:  Solving for T, Initial residual = 2.46394e-06, Final residual = 9.53893e-08, No Iterations 1
DICPCG:  Solving for T, Initial residual = 1.35531e-07, Final residual = 1.35531e-07, No Iterations 0
ExecutionTime = 0.408269 s  ClockTime = 0 s

Time = 1.05s

DICPCG:  Solving for T, Initial residual = 0.000543763, Final residual = 8.99285e-07, No Iterations 2
DICPCG:  Solving for T, Initial residual = 2.44583e-06, Final residual = 9.47247e-08, No Iterations 1
DICPCG:  Solving for T, Initial residual = 1.34529e-07, Final residual = 1.34529e-07, No Iterations 0
ExecutionTime = 0.409561 s  ClockTime = 0 s

Time = 1.055s

DICPCG:  Solving for T, Initial residual = 0.000540832, Final residual = 8.93967e-07, No Iterations 2
DICPCG:  Solving for T, Initial residual = 2.42789e-06, Final residual = 9.4066e-08, No Iterations 1
DICPCG:  Solving for T, Initial residual = 1.33537e-07, Final residual = 1.33537e-07, No Iterations 0
ExecutionTime = 0.410849 s  ClockTime = 0 s

Time = 1.06s

DICPCG:  Solving for T, Initial residual = 0.000537923, Final residual = 8.88694e-07, No Iterations 2
DICPCG:  Solving for T, Initial residual = 2.41013e-06, Final residual = 9.34134e-08, No Iterations 1
DICPCG:  Solving for T, Initial residual = 1.32556e-07, Final residual = 1.32556e-07, No Iterations 0
ExecutionTime = 0.412363 s  ClockTime = 0 s

Time = 1.065s

DICPCG:  Solving for T, Initial residual = 0.000535035, Final residual = 8.83463e-07, No Iterations 2
DICPCG:  Solving for T, Initial residual = 2.39254e-06, Final residual = 9.27673e-08, No Iterations 1
DICPCG:  Solving for T, Initial residual = 1.31585e-07, Final residual = 1.31585e-07, No Iterations 0
ExecutionTime = 0.413684 s  ClockTime = 0 s

Time = 1.07s

DICPCG:  Solving for T, Initial residual = 0.00053217, Final residual = 8.78274e-07, No Iterations 2
DICPCG:  Solving for T, Initial residual = 2.37512e-06, Final residual = 9.21275e-08, No Iterations 1
DICPCG:  Solving for T, Initial residual = 1.30623e-07, Final residual = 1.30623e-07, No Iterations 0
ExecutionTime = 0.414952 s  ClockTime = 0 s

Time = 1.075s

DICPCG:  Solving for T, Initial residual = 0.000529325, Final residual = 8.73128e-07, No Iterations 2
DICPCG:  Solving for T, Initial residual = 2.35786e-06, Final residual = 9.14947e-08, No Iterations 1
DICPCG:  Solving for T, Initial residual = 1.29671e-07, Final residual = 1.29671e-07, No Iterations 0
ExecutionTime = 0.416283 s  ClockTime = 0 s

Time = 1.08s

DICPCG:  Solving for T, Initial residual = 0.000526501, Final residual = 8.68023e-07, No Iterations 2
DICPCG:  Solving for T, Initial residual = 2.34078e-06, Final residual = 9.08687e-08, No Iterations 1
DICPCG:  Solving for T, Initial residual = 1.28728e-07, Final residual = 1.28728e-07, No Iterations 0
ExecutionTime = 0.417627 s  ClockTime = 0 s

Time = 1.085s

DICPCG:  Solving for T, Initial residual = 0.000523699, Final residual = 8.6296e-07, No Iterations 2
DICPCG:  Solving for T, Initial residual = 2.32387e-06, Final residual = 9.02494e-08, No Iterations 1
[...]

DICPCG:  Solving for T, Initial residual = 0.000131984, Final residual = 2.3013e-07, No Iterations 2
DICPCG:  Solving for T, Initial residual = 3.97357e-07, Final residual = 3.97357e-07, No Iterations 0
DICPCG:  Solving for T, Initial residual = 3.97357e-07, Final residual = 3.97357e-07, No Iterations 0
ExecutionTime = 1.01397 s  ClockTime = 1 s

Time = 2.735s

DICPCG:  Solving for T, Initial residual = 0.000131552, Final residual = 2.29531e-07, No Iterations 2
DICPCG:  Solving for T, Initial residual = 3.95902e-07, Final residual = 3.95902e-07, No Iterations 0
DICPCG:  Solving for T, Initial residual = 3.95902e-07, Final residual = 3.95902e-07, No Iterations 0
ExecutionTime = 1.01562 s  ClockTime = 1 s

Time = 2.74s

DICPCG:  Solving for T, Initial residual = 0.000131122, Final residual = 2.28935e-07, No Iterations 2
DICPCG:  Solving for T, Initial residual = 3.94456e-07, Final residual = 3.94456e-07, No Iterations 0
DICPCG:  Solving for T, Initial residual = 3.94456e-07, Final residual = 3.94456e-07, No Iterations 0
ExecutionTime = 1.01719 s  ClockTime = 1 s

Time = 2.745s

DICPCG:  Solving for T, Initial residual = 0.000130694, Final residual = 2.28341e-07, No Iterations 2
DICPCG:  Solving for T, Initial residual = 3.93018e-07, Final residual = 3.93018e-07, No Iterations 0
DICPCG:  Solving for T, Initial residual = 3.93018e-07, Final residual = 3.93018e-07, No Iterations 0
ExecutionTime = 1.01854 s  ClockTime = 1 s

Time = 2.75s

DICPCG:  Solving for T, Initial residual = 0.000130269, Final residual = 2.27749e-07, No Iterations 2
DICPCG:  Solving for T, Initial residual = 3.91587e-07, Final residual = 3.91587e-07, No Iterations 0
DICPCG:  Solving for T, Initial residual = 3.91587e-07, Final residual = 3.91587e-07, No Iterations 0
ExecutionTime = 1.01997 s  ClockTime = 1 s

Time = 2.755s

DICPCG:  Solving for T, Initial residual = 0.000129845, Final residual = 2.2716e-07, No Iterations 2
DICPCG:  Solving for T, Initial residual = 3.90165e-07, Final residual = 3.90165e-07, No Iterations 0
DICPCG:  Solving for T, Initial residual = 3.90165e-07, Final residual = 3.90165e-07, No Iterations 0
ExecutionTime = 1.02134 s  ClockTime = 1 s

Time = 2.76s

DICPCG:  Solving for T, Initial residual = 0.000129423, Final residual = 2.26574e-07, No Iterations 2
DICPCG:  Solving for T, Initial residual = 3.8875e-07, Final residual = 3.8875e-07, No Iterations 0
DICPCG:  Solving for T, Initial residual = 3.8875e-07, Final residual = 3.8875e-07, No Iterations 0
ExecutionTime = 1.02259 s  ClockTime = 1 s

Time = 2.765s

DICPCG:  Solving for T, Initial residual = 0.000129003, Final residual = 2.2599e-07, No Iterations 2
DICPCG:  Solving for T, Initial residual = 3.87343e-07, Final residual = 3.87343e-07, No Iterations 0
DICPCG:  Solving for T, Initial residual = 3.87343e-07, Final residual = 3.87343e-07, No Iterations 0
ExecutionTime = 1.02377 s  ClockTime = 1 s

Time = 2.77s

DICPCG:  Solving for T, Initial residual = 0.000128586, Final residual = 2.25408e-07, No Iterations 2
DICPCG:  Solving for T, Initial residual = 3.85944e-07, Final residual = 3.85944e-07, No Iterations 0
DICPCG:  Solving for T, Initial residual = 3.85944e-07, Final residual = 3.85944e-07, No Iterations 0
ExecutionTime = 1.02493 s  ClockTime = 1 s

Time = 2.775s

DICPCG:  Solving for T, Initial residual = 0.00012817, Final residual = 2.24829e-07, No Iterations 2
DICPCG:  Solving for T, Initial residual = 3.84552e-07, Final residual = 3.84552e-07, No Iterations 0
DICPCG:  Solving for T, Initial residual = 3.84552e-07, Final residual = 3.84552e-07, No Iterations 0
ExecutionTime = 1.02642 s  ClockTime = 1 s

Time = 2.78s

DICPCG:  Solving for T, Initial residual = 0.000127756, Final residual = 2.24252e-07, No Iterations 2
DICPCG:  Solving for T, Initial residual = 3.83167e-07, Final residual = 3.83167e-07, No Iterations 0
DICPCG:  Solving for T, Initial residual = 3.83167e-07, Final residual = 3.83167e-07, No Iterations 0
ExecutionTime = 1.02783 s  ClockTime = 1 s

Time = 2.785s

DICPCG:  Solving for T, Initial residual = 0.000127344, Final residual = 2.23678e-07, No Iterations 2
DICPCG:  Solving for T, Initial residual = 3.81791e-07, Final residual = 3.81791e-07, No Iterations 0
DICPCG:  Solving for T, Initial residual = 3.81791e-07, Final residual = 3.81791e-07, No Iterations 0
ExecutionTime = 1.0291 s  ClockTime = 1 s

Time = 2.79s

DICPCG:  Solving for T, Initial residual = 0.000126934, Final residual = 2.23106e-07, No Iterations 2
DICPCG:  Solving for T, Initial residual = 3.80422e-07, Final residual = 3.80422e-07, No Iterations 0
DICPCG:  Solving for T, Initial residual = 3.80422e-07, Final residual = 3.80422e-07, No Iterations 0
ExecutionTime = 1.03029 s  ClockTime = 1 s

Time = 2.795s

DICPCG:  Solving for T, Initial residual = 0.000126526, Final residual = 2.22536e-07, No Iterations 2
DICPCG:  Solving for T, Initial residual = 3.79062e-07, Final residual = 3.79062e-07, No Iterations 0
DICPCG:  Solving for T, Initial residual = 3.79062e-07, Final residual = 3.79062e-07, No Iterations 0
ExecutionTime = 1.03151 s  ClockTime = 1 s

Time = 2.8s

DICPCG:  Solving for T, Initial residual = 0.00012612, Final residual = 2.21968e-07, No Iterations 2
DICPCG:  Solving for T, Initial residual = 3.77709e-07, Final residual = 3.77709e-07, No Iterations 0
DICPCG:  Solving for T, Initial residual = 3.77709e-07, Final residual = 3.77709e-07, No Iterations 0
ExecutionTime = 1.04226 s  ClockTime = 1 s

Time = 2.805s

DICPCG:  Solving for T, Initial residual = 0.000125715, Final residual = 2.21403e-07, No Iterations 2
DICPCG:  Solving for T, Initial residual = 3.76363e-07, Final residual = 3.76363e-07, No Iterations 0
DICPCG:  Solving for T, Initial residual = 3.76363e-07, Final residual = 3.76363e-07, No Iterations 0
ExecutionTime = 1.04401 s  ClockTime = 1 s

Time = 2.81s

DICPCG:  Solving for T, Initial residual = 0.000125313, Final residual = 2.2084e-07, No Iterations 2
DICPCG:  Solving for T, Initial residual = 3.75025e-07, Final residual = 3.75025e-07, No Iterations 0
DICPCG:  Solving for T, Initial residual = 3.75025e-07, Final residual = 3.75025e-07, No Iterations 0
ExecutionTime = 1.04525 s  ClockTime = 1 s

Time = 2.815s

DICPCG:  Solving for T, Initial residual = 0.000124912, Final residual = 2.20279e-07, No Iterations 2
DICPCG:  Solving for T, Initial residual = 3.73694e-07, Final residual = 3.73694e-07, No Iterations 0
DICPCG:  Solving for T, Initial residual = 3.73694e-07, Final residual = 3.73694e-07, No Iterations 0
ExecutionTime = 1.04663 s  ClockTime = 1 s

Time = 2.82s

DICPCG:  Solving for T, Initial residual = 0.000124514, Final residual = 2.19721e-07, No Iterations 2
DICPCG:  Solving for T, Initial residual = 3.72371e-07, Final residual = 3.72371e-07, No Iterations 0
DICPCG:  Solving for T, Initial residual = 3.72371e-07, Final residual = 3.72371e-07, No Iterations 0
ExecutionTime = 1.04811 s  ClockTime = 1 s

Time = 2.825s

DICPCG:  Solving for T, Initial residual = 0.000124117, Final residual = 2.19165e-07, No Iterations 2
DICPCG:  Solving for T, Initial residual = 3.71056e-07, Final residual = 3.71056e-07, No Iterations 0
DICPCG:  Solving for T, Initial residual = 3.71056e-07, Final residual = 3.71056e-07, No Iterations 0
ExecutionTime = 1.04949 s  ClockTime = 1 s

Time = 2.83s

DICPCG:  Solving for T, Initial residual = 0.000123722, Final residual = 2.18611e-07, No Iterations 2
DICPCG:  Solving for T, Initial residual = 3.69749e-07, Final residual = 3.69749e-07, No Iterations 0
DICPCG:  Solving for T, Initial residual = 3.69749e-07, Final residual = 3.69749e-07, No Iterations 0
ExecutionTime = 1.0507 s  ClockTime = 1 s

Time = 2.835s

DICPCG:  Solving for T, Initial residual = 0.000123329, Final residual = 2.18059e-07, No Iterations 2
DICPCG:  Solving for T, Initial residual = 3.68451e-07, Final residual = 3.68451e-07, No Iterations 0
DICPCG:  Solving for T, Initial residual = 3.68451e-07, Final residual = 3.68451e-07, No Iterations 0
ExecutionTime = 1.05186 s  ClockTime = 1 s

Time = 2.84s

DICPCG:  Solving for T, Initial residual = 0.000122938, Final residual = 2.17509e-07, No Iterations 2
DICPCG:  Solving for T, Initial residual = 3.6716e-07, Final residual = 3.6716e-07, No Iterations 0
DICPCG:  Solving for T, Initial residual = 3.6716e-07, Final residual = 3.6716e-07, No Iterations 0
ExecutionTime = 1.05302 s  ClockTime = 1 s

Time = 2.845s

DICPCG:  Solving for T, Initial residual = 0.000122548, Final residual = 2.16962e-07, No Iterations 2
DICPCG:  Solving for T, Initial residual = 3.65878e-07, Final residual = 3.65878e-07, No Iterations 0
DICPCG:  Solving for T, Initial residual = 3.65878e-07, Final residual = 3.65878e-07, No Iterations 0
ExecutionTime = 1.05447 s  ClockTime = 1 s

Time = 2.85s

DICPCG:  Solving for T, Initial residual = 0.00012216, Final residual = 2.16417e-07, No Iterations 2
DICPCG:  Solving for T, Initial residual = 3.64603e-07, Final residual = 3.64603e-07, No Iterations 0
DICPCG:  Solving for T, Initial residual = 3.64603e-07, Final residual = 3.64603e-07, No Iterations 0
ExecutionTime = 1.05662 s  ClockTime = 1 s

Time = 2.855s

DICPCG:  Solving for T, Initial residual = 0.000121774, Final residual = 2.15874e-07, No Iterations 2
DICPCG:  Solving for T, Initial residual = 3.63337e-07, Final residual = 3.63337e-07, No Iterations 0
DICPCG:  Solving for T, Initial residual = 3.63337e-07, Final residual = 3.63337e-07, No Iterations 0
ExecutionTime = 1.05827 s  ClockTime = 1 s

Time = 2.86s

DICPCG:  Solving for T, Initial residual = 0.00012139, Final residual = 2.15333e-07, No Iterations 2
DICPCG:  Solving for T, Initial residual = 3.62077e-07, Final residual = 3.62077e-07, No Iterations 0
DICPCG:  Solving for T, Initial residual = 3.62077e-07, Final residual = 3.62077e-07, No Iterations 0
ExecutionTime = 1.05967 s  ClockTime = 1 s

Time = 2.865s

DICPCG:  Solving for T, Initial residual = 0.000121008, Final residual = 2.14795e-07, No Iterations 2
DICPCG:  Solving for T, Initial residual = 3.60823e-07, Final residual = 3.60823e-07, No Iterations 0
DICPCG:  Solving for T, Initial residual = 3.60823e-07, Final residual = 3.60823e-07, No Iterations 0
ExecutionTime = 1.06194 s  ClockTime = 1 s

Time = 2.87s

DICPCG:  Solving for T, Initial residual = 0.000120627, Final residual = 2.14258e-07, No Iterations 2
DICPCG:  Solving for T, Initial residual = 3.59576e-07, Final residual = 3.59576e-07, No Iterations 0
DICPCG:  Solving for T, Initial residual = 3.59576e-07, Final residual = 3.59576e-07, No Iterations 0
ExecutionTime = 1.06377 s  ClockTime = 1 s

Time = 2.875s

DICPCG:  Solving for T, Initial residual = 0.000120249, Final residual = 2.13724e-07, No Iterations 2
DICPCG:  Solving for T, Initial residual = 3.58335e-07, Final residual = 3.58335e-07, No Iterations 0
DICPCG:  Solving for T, Initial residual = 3.58335e-07, Final residual = 3.58335e-07, No Iterations 0
ExecutionTime = 1.06518 s  ClockTime = 1 s

Time = 2.88s

DICPCG:  Solving for T, Initial residual = 0.000119871, Final residual = 2.13192e-07, No Iterations 2
DICPCG:  Solving for T, Initial residual = 3.57101e-07, Final residual = 3.57101e-07, No Iterations 0
DICPCG:  Solving for T, Initial residual = 3.57101e-07, Final residual = 3.57101e-07, No Iterations 0
ExecutionTime = 1.06656 s  ClockTime = 1 s

Time = 2.885s

DICPCG:  Solving for T, Initial residual = 0.000119496, Final residual = 2.12662e-07, No Iterations 2
DICPCG:  Solving for T, Initial residual = 3.55874e-07, Final residual = 3.55874e-07, No Iterations 0
DICPCG:  Solving for T, Initial residual = 3.55874e-07, Final residual = 3.55874e-07, No Iterations 0
ExecutionTime = 1.06825 s  ClockTime = 1 s

Time = 2.89s

DICPCG:  Solving for T, Initial residual = 0.000119122, Final residual = 2.12134e-07, No Iterations 2
DICPCG:  Solving for T, Initial residual = 3.54653e-07, Final residual = 3.54653e-07, No Iterations 0
DICPCG:  Solving for T, Initial residual = 3.54653e-07, Final residual = 3.54653e-07, No Iterations 0
ExecutionTime = 1.07 s  ClockTime = 1 s

Time = 2.895s

DICPCG:  Solving for T, Initial residual = 0.000118751, Final residual = 2.11608e-07, No Iterations 2
DICPCG:  Solving for T, Initial residual = 3.53439e-07, Final residual = 3.53439e-07, No Iterations 0
DICPCG:  Solving for T, Initial residual = 3.53439e-07, Final residual = 3.53439e-07, No Iterations 0
ExecutionTime = 1.07169 s  ClockTime = 1 s

Time = 2.9s

DICPCG:  Solving for T, Initial residual = 0.00011838, Final residual = 2.11084e-07, No Iterations 2
DICPCG:  Solving for T, Initial residual = 3.52231e-07, Final residual = 3.52231e-07, No Iterations 0
DICPCG:  Solving for T, Initial residual = 3.52231e-07, Final residual = 3.52231e-07, No Iterations 0
ExecutionTime = 1.08439 s  ClockTime = 1 s

Time = 2.905s

DICPCG:  Solving for T, Initial residual = 0.000118012, Final residual = 2.10562e-07, No Iterations 2
DICPCG:  Solving for T, Initial residual = 3.51029e-07, Final residual = 3.51029e-07, No Iterations 0
DICPCG:  Solving for T, Initial residual = 3.51029e-07, Final residual = 3.51029e-07, No Iterations 0
ExecutionTime = 1.08647 s  ClockTime = 1 s

Time = 2.91s

DICPCG:  Solving for T, Initial residual = 0.000117645, Final residual = 2.10042e-07, No Iterations 2
DICPCG:  Solving for T, Initial residual = 3.49834e-07, Final residual = 3.49834e-07, No Iterations 0
DICPCG:  Solving for T, Initial residual = 3.49834e-07, Final residual = 3.49834e-07, No Iterations 0
ExecutionTime = 1.08801 s  ClockTime = 1 s

Time = 2.915s

DICPCG:  Solving for T, Initial residual = 0.00011728, Final residual = 2.09524e-07, No Iterations 2
DICPCG:  Solving for T, Initial residual = 3.48645e-07, Final residual = 3.48645e-07, No Iterations 0
DICPCG:  Solving for T, Initial residual = 3.48645e-07, Final residual = 3.48645e-07, No Iterations 0
ExecutionTime = 1.08948 s  ClockTime = 1 s

Time = 2.92s

DICPCG:  Solving for T, Initial residual = 0.000116916, Final residual = 2.09008e-07, No Iterations 2
DICPCG:  Solving for T, Initial residual = 3.47463e-07, Final residual = 3.47463e-07, No Iterations 0
DICPCG:  Solving for T, Initial residual = 3.47463e-07, Final residual = 3.47463e-07, No Iterations 0
ExecutionTime = 1.09084 s  ClockTime = 1 s

Time = 2.925s

DICPCG:  Solving for T, Initial residual = 0.000116555, Final residual = 2.08494e-07, No Iterations 2
DICPCG:  Solving for T, Initial residual = 3.46287e-07, Final residual = 3.46287e-07, No Iterations 0
DICPCG:  Solving for T, Initial residual = 3.46287e-07, Final residual = 3.46287e-07, No Iterations 0
ExecutionTime = 1.09225 s  ClockTime = 1 s

Time = 2.93s

DICPCG:  Solving for T, Initial residual = 0.000116194, Final residual = 2.07982e-07, No Iterations 2
DICPCG:  Solving for T, Initial residual = 3.45119e-07, Final residual = 3.45119e-07, No Iterations 0
DICPCG:  Solving for T, Initial residual = 3.45119e-07, Final residual = 3.45119e-07, No Iterations 0
ExecutionTime = 1.09361 s  ClockTime = 1 s

Time = 2.935s

DICPCG:  Solving for T, Initial residual = 0.000115836, Final residual = 2.07471e-07, No Iterations 2
DICPCG:  Solving for T, Initial residual = 3.43956e-07, Final residual = 3.43956e-07, No Iterations 0
DICPCG:  Solving for T, Initial residual = 3.43956e-07, Final residual = 3.43956e-07, No Iterations 0
ExecutionTime = 1.09509 s  ClockTime = 1 s

Time = 2.94s

DICPCG:  Solving for T, Initial residual = 0.000115479, Final residual = 2.06963e-07, No Iterations 2
DICPCG:  Solving for T, Initial residual = 3.428e-07, Final residual = 3.428e-07, No Iterations 0
DICPCG:  Solving for T, Initial residual = 3.428e-07, Final residual = 3.428e-07, No Iterations 0
ExecutionTime = 1.09658 s  ClockTime = 1 s

Time = 2.945s

DICPCG:  Solving for T, Initial residual = 0.000115124, Final residual = 2.06457e-07, No Iterations 2
DICPCG:  Solving for T, Initial residual = 3.4165e-07, Final residual = 3.4165e-07, No Iterations 0
DICPCG:  Solving for T, Initial residual = 3.4165e-07, Final residual = 3.4165e-07, No Iterations 0
ExecutionTime = 1.09806 s  ClockTime = 1 s

Time = 2.95s

DICPCG:  Solving for T, Initial residual = 0.00011477, Final residual = 2.05953e-07, No Iterations 2
DICPCG:  Solving for T, Initial residual = 3.40505e-07, Final residual = 3.40505e-07, No Iterations 0
DICPCG:  Solving for T, Initial residual = 3.40505e-07, Final residual = 3.40505e-07, No Iterations 0
ExecutionTime = 1.09974 s  ClockTime = 1 s

Time = 2.955s

DICPCG:  Solving for T, Initial residual = 0.000114418, Final residual = 2.0545e-07, No Iterations 2
DICPCG:  Solving for T, Initial residual = 3.39367e-07, Final residual = 3.39367e-07, No Iterations 0
DICPCG:  Solving for T, Initial residual = 3.39367e-07, Final residual = 3.39367e-07, No Iterations 0
ExecutionTime = 1.10123 s  ClockTime = 1 s

Time = 2.96s

DICPCG:  Solving for T, Initial residual = 0.000114067, Final residual = 2.0495e-07, No Iterations 2
DICPCG:  Solving for T, Initial residual = 3.38235e-07, Final residual = 3.38235e-07, No Iterations 0
DICPCG:  Solving for T, Initial residual = 3.38235e-07, Final residual = 3.38235e-07, No Iterations 0
ExecutionTime = 1.10285 s  ClockTime = 1 s

Time = 2.965s

DICPCG:  Solving for T, Initial residual = 0.000113719, Final residual = 2.04452e-07, No Iterations 2
DICPCG:  Solving for T, Initial residual = 3.37109e-07, Final residual = 3.37109e-07, No Iterations 0
DICPCG:  Solving for T, Initial residual = 3.37109e-07, Final residual = 3.37109e-07, No Iterations 0
ExecutionTime = 1.10417 s  ClockTime = 1 s

Time = 2.97s

DICPCG:  Solving for T, Initial residual = 0.000113371, Final residual = 2.03955e-07, No Iterations 2
DICPCG:  Solving for T, Initial residual = 3.35991e-07, Final residual = 3.35991e-07, No Iterations 0
DICPCG:  Solving for T, Initial residual = 3.35991e-07, Final residual = 3.35991e-07, No Iterations 0
ExecutionTime = 1.10554 s  ClockTime = 1 s

Time = 2.975s

DICPCG:  Solving for T, Initial residual = 0.000113026, Final residual = 2.0346e-07, No Iterations 2
DICPCG:  Solving for T, Initial residual = 3.34878e-07, Final residual = 3.34878e-07, No Iterations 0
DICPCG:  Solving for T, Initial residual = 3.34878e-07, Final residual = 3.34878e-07, No Iterations 0
ExecutionTime = 1.10695 s  ClockTime = 1 s

Time = 2.98s

DICPCG:  Solving for T, Initial residual = 0.000112681, Final residual = 2.02967e-07, No Iterations 2
DICPCG:  Solving for T, Initial residual = 3.33771e-07, Final residual = 3.33771e-07, No Iterations 0
DICPCG:  Solving for T, Initial residual = 3.33771e-07, Final residual = 3.33771e-07, No Iterations 0
ExecutionTime = 1.10827 s  ClockTime = 1 s

Time = 2.985s

DICPCG:  Solving for T, Initial residual = 0.000112339, Final residual = 2.02476e-07, No Iterations 2
DICPCG:  Solving for T, Initial residual = 3.32673e-07, Final residual = 3.32673e-07, No Iterations 0
DICPCG:  Solving for T, Initial residual = 3.32673e-07, Final residual = 3.32673e-07, No Iterations 0
ExecutionTime = 1.10967 s  ClockTime = 1 s

Time = 2.99s

DICPCG:  Solving for T, Initial residual = 0.000111998, Final residual = 2.01986e-07, No Iterations 2
DICPCG:  Solving for T, Initial residual = 3.31583e-07, Final residual = 3.31583e-07, No Iterations 0
DICPCG:  Solving for T, Initial residual = 3.31583e-07, Final residual = 3.31583e-07, No Iterations 0
ExecutionTime = 1.11108 s  ClockTime = 1 s

Time = 2.995s

DICPCG:  Solving for T, Initial residual = 0.000111658, Final residual = 2.01499e-07, No Iterations 2
DICPCG:  Solving for T, Initial residual = 3.30498e-07, Final residual = 3.30498e-07, No Iterations 0
DICPCG:  Solving for T, Initial residual = 3.30498e-07, Final residual = 3.30498e-07, No Iterations 0
ExecutionTime = 1.11242 s  ClockTime = 1 s

Time = 3s

DICPCG:  Solving for T, Initial residual = 0.00011132, Final residual = 2.01013e-07, No Iterations 2
DICPCG:  Solving for T, Initial residual = 3.29418e-07, Final residual = 3.29418e-07, No Iterations 0
DICPCG:  Solving for T, Initial residual = 3.29418e-07, Final residual = 3.29418e-07, No Iterations 0
ExecutionTime = 1.12446 s  ClockTime = 1 s

End

